# File generated by Flopy version 3.4.1 on 07/22/2024 at 09:17:43.
BEGIN options
END options

BEGIN timing
  TDIS6  sim.tdis
END timing

BEGIN models
  gwf6  run.nam  run
END models

BEGIN exchanges
END exchanges

BEGIN solutiongroup  1
  ims6  sim.ims  run
END solutiongroup  1

