# File generated by Flopy version 3.4.1 on 07/22/2024 at 08:56:21.
BEGIN options
  PRINT_INPUT
  PRINT_FLOWS
  SAVE_FLOWS
END options

BEGIN dimensions
  MAXBOUND  12
END dimensions

BEGIN period  1
  6968   -1666.66666667
  8158   -1666.66666667
  9348   -1666.66666667
  6969   -1666.66666667
  8159   -1666.66666667
  9349   -1666.66666667
  6970   -1666.66666667
  8160   -1666.66666667
  9350   -1666.66666667
  6971   -1666.66666667
  8161   -1666.66666667
  9351   -1666.66666667
END period  1

