# File generated by Flopy version 3.4.1 on 07/22/2024 at 08:56:21.
BEGIN griddata
  strt
    INTERNAL  FACTOR  1.0
       -19.28645541     -15.34085900     -12.38520150      -9.92796713      -7.88146683      -6.18242625      -4.77240103      -3.57329156      -2.56503211      -1.73744530      -1.09830910      -0.61088941      -0.27046787      -0.06835893       0.00707614      -0.02930795      -0.17757318      -0.43084981      -0.78514188      -1.23845847
        -1.79084821      -2.44191174      -3.18656965      -4.04641837      -5.02264543      -6.14479267      -7.40709123      -8.78538840     -10.28654792     -11.91905488     -13.68952017     -15.55536965     -17.54561895     -19.71819301     -22.03754279     -24.57352530     -27.38778471     -30.57027460     -34.43777721     -39.74221783
       -49.16054102     -49.20233553     -49.20600288     -49.19901247     -49.19118470     -49.17907041     -49.16434093     -49.14898762     -49.12181190     -49.09148683     -48.86225518     -48.86225430     -48.86225416     -48.86225399     -48.86225378     -48.86225346     -48.86225284     -48.86225357     -48.86225447     -48.86225524
       -48.97363348     -48.98058961     -48.98877187     -48.99796404     -49.00991671     -49.02952626     -49.06371229     -49.08492236     -49.12487240     -49.16349199     -49.17875955     -49.18176059     -49.18772323     -48.86225633     -48.86225584     -48.86225601     -48.86225647     -48.86225735     -48.86225924     -48.86226106
       -48.86226195     -38.44296356     -32.71486557     -28.80795164     -25.75532828     -23.33169621     -21.37846720     -19.82774675     -18.62853629     -17.70932660     -17.05055720     -16.58821514     -16.33048318     -16.20737403     -16.08831893     -15.96022635     -15.83293695     -15.71170195     -15.59135377     -15.46699666
       -15.34346557     -15.22780284     -15.11491849     -15.00873841     -14.91016071     -14.81733264     -14.72933290     -14.63193959     -14.50655182     -14.24391627     -13.62629641     -12.46767111     -11.69539584     -11.31993119     -11.29535061     -11.61158047     -12.27763345     -13.30264819     -14.72524812     -16.60419474
       -19.34625172     -19.34779199     -19.34779188     -19.34779176     -19.34779163     -19.34779150     -19.34779138     -19.34779124     -19.34779108     -19.34779101     -19.34779099     -19.34779093     -19.34779079     -19.34779065     -19.34779073     -19.34779081     -19.34779093     -19.34779110     -19.34774983     -19.34704303
       -19.34141172     -19.34024892     -19.33749507     -19.33622449     -19.33542794     -19.33313798     -19.32830827     -19.32842296     -19.32493115     -19.32268545     -19.31743098     -19.32046804     -19.32227014     -19.32078760     -19.32158199     -19.32267277     -19.32082550     -19.31938794     -19.31734010     -19.31878793
       -16.47692869     -42.00181307     -41.02384002     -17.39723759      -1.12017679      -1.21734275      -1.25163357      -1.22844671      -1.16607248      -1.07495354      -0.97349639      -0.90431004      -0.91012335      -0.99646314      -1.25065290      -1.45569280      -1.48022092      -1.40380672      -1.30041297      -1.14997503
        -0.93815787      -0.76755254      -0.76495849      -0.96052337      -2.61093746      -2.70762224      -2.59975929      -2.34097003      -2.03724167      -1.79793943      -1.70229211      -1.78638250      -2.03024275      -2.34786021      -3.09096296      -3.28387808      -3.04684028      -2.51660318      -1.92595031      -1.47756767
        -1.29123727      -1.42691062      -1.89532119      -2.54293694      -2.43047093      -2.57410646      -2.58418194      -2.47773748      -2.30358576      -2.11358859      -1.96498875      -1.91420031      -2.00042993      -2.20415783      -2.69425771      -2.97203671      -2.95035620      -2.72423062      -2.41286136      -2.07699036
        -1.79318228      -1.65156866      -1.78284886      -2.21124598      -4.35888923      -4.49036214      -4.37552800      -4.07305940      -3.70947703      -3.41449801      -3.28512435      -3.37218355      -3.65546276      -4.03502186      -4.90217981      -5.16600527      -4.91063974      -4.28655418      -3.58096660      -3.02348404
        -2.76427119      -2.91012831      -3.45957337      -4.23148020      -0.60147580      -0.69099970      -0.87818346      -1.10957244      -1.29949652      -1.35825342      -1.24995988      -1.02663067      -0.79161038      -0.63556629     -15.39352855     -15.41548518     -15.26896932     -14.97303095     -14.49673937     -14.05580479
       -13.88019325     -14.06702174     -14.54879802     -15.09998340     -20.89369388     -20.98318984     -20.44849722     -19.53746920     -18.61476371     -18.00383405     -17.92044196     -18.39598038     -19.26340160     -20.22321070      -4.79202801      -4.95505477      -5.06912349      -5.11432943      -5.08239225      -4.96639467
        -4.79036555      -4.62883056      -4.56724793      -4.63661823     -23.01289000     -22.63769225     -22.22663034     -21.93960306     -21.87208933     -22.03978054     -22.38367242     -22.78831955     -23.10268131     -23.19368543      -1.06472398      -2.17895795      -2.23478286      -3.86124202      -0.94284265     -14.85200036
       -19.40475084      -4.83901401     -22.51165559      -1.72895517     -46.44484532     -15.36231592     -16.61705744     -13.01174495      -0.87628136     -43.18963172     -16.94231712     -17.06671064      -5.90053276     -27.00766080       0.00587331     -42.09022638     -46.71179498     -15.97752493     -16.84646615      -9.12194257
       -19.13857228     -32.66577391      -0.56251963     -41.87181831     -42.50101831     -46.52861812     -15.67139376     -16.69664184     -10.97586302     -15.90459974     -22.79244619     -29.62182144     -36.61804127      -1.07091056     -41.80994982     -42.00450339     -42.31681565     -42.70071066     -46.39685864     -15.51634625
       -16.66547914     -41.94872062     -13.78252799     -16.45345551      -5.44406793     -22.32754774     -17.30692434      -3.45754825      -0.05713227     -46.60906367     -16.30120794     -16.94520627      -7.43020505      -0.20199402     -46.62956465     -15.81768512     -16.76338523     -24.82155114     -17.45112775      -2.60829011
       -16.47248848     -12.22629589     -46.52161925     -46.47477606     -14.83871478     -41.00128953     -45.26740718     -18.77509958     -17.35489899     -17.18204848      -4.57889889     -16.14063825     -16.89671905     -16.55140056     -11.41675983     -31.13734759      -2.52457979       0.05415993      -0.35830649     -46.76900298
       -44.16513157     -16.49887475     -17.00496805     -17.09390165     -17.24745482     -17.34076392     -17.36264421     -46.56742482     -17.67101698     -43.64689513     -14.15847545     -11.35837291     -16.46248859     -16.48270118      -1.61098526      -3.88102080     -40.92737505     -41.59117095     -14.59256162     -15.08270351
       -46.01140281     -20.29878841     -25.94076320      -8.00334533     -13.73713963     -16.50735457     -16.56648759     -35.17761876     -14.95755109     -16.49937383     -16.44976050     -44.89083404     -46.74712195     -46.78467727     -43.67165400     -16.46995799     -11.37952806     -17.13823599     -16.45660579      -6.63766609
       -17.26813686     -12.17718025     -15.58219483     -42.35904202     -44.45715226     -13.05107087     -16.48275177     -14.38569656     -41.23468718     -40.85404255     -40.95368916     -41.76813078     -14.72796427     -15.22249534     -45.73318814     -46.24070302      -9.58379722     -23.99162224     -28.28330743     -16.51915570
       -16.60280508     -16.56486622     -16.48812549     -11.69612005     -11.65327453     -16.48457600     -41.12754731     -41.60410195      -0.87649963      -5.38536475     -21.28546718     -20.06084424      -1.04714196      -1.77001687      -1.04325681      -0.84679577      -1.22202747      -4.61063195      -0.75512318      -1.09837537
        -0.85103257      -1.38180008      -1.33936431      -1.42599462      -1.46191615      -1.35043482      -1.69408455      -0.39361040     -15.73596502      -1.92969893      -1.69917269      -2.23727612      -2.55691948      -2.44900468      -1.98237966      -2.83260537      -2.95375314      -2.89318492      -2.82314992      -3.29829836
        -1.71663713      -4.35540278      -5.23979601      -1.64988900      -2.20916239      -2.77165035      -2.21145742      -3.18497023      -2.81128391      -3.16050247      -2.83258769      -3.17482847      -3.92350968      -4.58940214      -5.03607727      -4.56159809      -5.03246121      -3.83602856      -1.35087324     -14.75593420
       -16.84441851     -17.17415068     -23.41077687     -21.89776775     -22.70124119     -23.18087560      -0.49210884      -5.29379008      -5.35559063     -21.62071261     -21.83561144     -18.15594267      -0.64257107      -1.50803236      -1.38189950      -1.81541022      -1.07854394      -1.41733416      -5.00977313      -4.33152461
        -1.09825245      -0.70633829      -1.52283417      -1.58473917      -1.77277856      -1.47418552     -15.54660742     -15.66811012      -2.26582063      -2.47646567      -3.01652912      -3.07957424      -4.64307841      -4.99385725     -13.02991057      -1.28463016      -3.10732596      -2.39780681      -3.75810679      -3.64810766
        -4.13635364     -13.71276886     -16.47058754      -5.63906858     -18.72805904     -23.87294103     -21.39605818     -22.64846982     -22.19627852     -23.79167881     -22.33258344      -0.33245383      -0.73743520      -1.14863510      -1.28871970      -1.84917329      -0.98661159      -1.25047109      -0.84392029      -0.60160774
        -1.65437798      -1.42263898      -1.54729165      -1.66427000      -2.02884754      -1.69975269     -15.26872314     -14.81812695      -2.37404335      -2.70612389      -3.30369851      -2.82181362      -3.08439343     -13.04845172      -1.60051635      -2.85675418      -2.49357543      -2.09381912      -5.16915265      -3.62424285
        -3.35478979      -3.58107310      -4.03585788      -3.41744139      -3.77872811      -4.82274295      -5.53318309     -20.61357943      -0.85374797      -1.98044187      -1.14755787      -0.66228286      -1.54228508     -13.69494115      -3.09921807      -2.60708937      -2.41640459      -4.66223000      -5.66952511      -2.92104635
        -3.22274358      -5.00255460      -1.80470203      -3.41129490      -2.07038349      -5.54146860      -1.52455468      -0.80062254      -1.57283822      -2.59459659      -3.53674515      -2.12514357      -4.45588092      -4.07802905      -3.78810967      -0.89465683      -2.10574002      -0.51432621      -1.42080402      -6.41564974
        -3.27227348      -5.62308513      -1.35568706      -0.79877138      -2.80272728      -3.71168434      -1.95517294      -5.02572256      -1.98215670      -6.40789859      -2.24833949      -0.53428257      -4.39132751      -2.12795074      -2.07422103     -14.43770606     -46.66255534     -20.90445417     -18.17350433     -18.13518852
       -41.85434754     -16.47421950     -12.92919616     -17.22089289     -17.07235467     -11.27451061     -16.47788683     -41.30628027      -1.74442958     -18.12925340      -2.28095234     -18.57821058      -2.48708949      -3.17221897     -19.21003061     -19.59938985     -16.63248325     -32.53956843     -28.27466643     -34.47855642
       -12.19606093     -12.54676906     -14.80639595     -12.55139801     -33.05616294     -41.29382072     -34.25296515      -0.44901607      -6.03779252     -20.36992544     -22.58952665      -2.61707184      -5.04758462     -15.80635614      -5.84955355     -13.61260485     -24.93333250     -20.80848713      -1.85102025      -4.26971183
       -15.60767440      -0.77567221      -2.43543385      -0.64588840      -4.95446140      -6.37579384      -1.22358515      -1.99317894      -0.89776720      -3.12789539      -6.73641720      -2.68823846      -1.55055635     -14.46209795      -0.42000174      -4.31789193      -5.12948230      -2.48089958     -15.10936273     -18.22846419
       -35.68508725     -35.20146009     -25.04768913     -25.82008676     -34.41293661     -36.56763140     -31.05910147     -13.65818217      -7.30458362     -11.90140802     -14.55348875     -15.52586253     -13.54633116     -10.47526693     -13.76228991     -29.68568444     -35.30261936     -44.80223675     -38.69610685     -24.71170824
       -35.04112080     -36.27532422      -1.37430588      -0.01424304      -5.83529433      -5.90661999     -21.35142790     -43.51562057     -42.73359018     -25.47975218     -12.58760836      -4.12352040     -15.40293740     -16.20650244      -5.67156078     -11.30474175     -12.45919035     -11.99331908     -23.52266088     -20.22250527
       -21.98362916      -3.35606422      -5.08666945     -14.15297104     -18.76212595      -1.65611082      -0.24976815      -4.13026903     -13.63560355      -6.46030695     -16.53228139      -7.89581977      -3.02878930     -13.68787146     -19.93375157     -37.66754587     -38.66344888     -36.42024490     -23.20123368     -23.70738603
       -37.30273273     -14.20338170      -6.01554409     -11.48077003     -15.38281195     -15.66022887      -8.77017142     -27.10391926     -45.21216991     -41.84490467     -23.03186746     -25.47170802     -36.84166505     -36.74835361       0.00280162     -14.16277371     -44.46292444     -43.77176647     -43.01784867     -26.12294356
       -13.86761484     -15.01082305     -16.04485535     -12.14498386      -3.79173621      -3.41070733      -4.30390342     -11.83027526     -19.92035094      -7.36170599     -11.99304513     -14.17092518     -21.74360282     -19.70162311     -37.90672890     -40.22409385     -30.24571105     -14.26500277     -10.49197303     -11.07624797
       -11.23942520     -15.60429306      -9.20635039     -27.83260534     -45.17920292     -40.79457804     -36.68815113     -15.06856643     -15.20766882     -44.66200523     -44.69137355     -44.17806542     -14.25351534     -11.69804784     -23.45984379     -20.86447367     -35.78858874     -30.94622966     -14.26787602     -12.15331510
       -11.31557975     -15.59755258     -13.19391602     -43.55878257     -32.83746269     -15.30658318     -42.16225129     -10.63449314     -11.34792176     -11.16745236     -22.65050438     -14.27609883     -12.38534285     -11.21962019     -14.14638084     -41.00794973     -29.96726870     -33.41775403     -14.96778071     -12.62236290
       -11.21874855     -22.33606868     -12.15839865     -10.00088712     -10.79589574     -12.08637612     -12.36169097     -10.73747413      -9.64574129      -2.66560259      -0.98746591      -6.09065871      -1.60833559      -0.50648443      -2.83794722      -1.02155894      -2.15143334      -5.04295715     -31.48327093     -13.56968567
        -0.26518506      -7.29286266     -30.76864380     -21.33507024      -4.59792994     -38.24671871     -32.94291679      -3.90957050      -3.63362410      -9.26727582     -10.08789510     -11.23360926     -30.93230822     -42.76905630     -41.90770215     -25.34670081     -25.93756287     -14.22052405      -6.97793065     -13.37571350
        -2.37228596      -0.30413040      -3.69435848      -2.79599491      -0.69174760      -6.51598449      -9.25869608     -33.88172319     -22.77789697      -5.37872542     -34.47695786     -36.46685653     -29.75419932     -30.33232407      -4.84171655      -3.77363342      -2.91063908      -9.41526372     -28.35314186     -40.52974775
       -40.64481472     -38.98516036     -26.90510301     -11.96217014      -1.59701671      -0.15669334      -6.35725572     -31.40633350      -4.24937799      -3.71790977      -2.26243389      -7.13174279     -26.64538265     -31.01708515      -4.62592683      -3.39334997      -4.14637913      -8.11553556      -9.08685583      -7.94496529
       -10.03418294      -6.70220942      -3.83104545     -29.63161326      -7.40226298     -25.41965094     -39.97276494      -1.42502917     -20.06754182     -28.29544154      -5.67832483      -3.63393523      -6.32130771      -7.84238808     -10.30308623      -7.52600692     -25.89659255     -37.00191144      -1.05689048     -26.03597249
       -23.36868856      -3.85440517      -4.98279874      -5.24054251     -22.87912479     -37.06093658      -2.34640268      -4.61845366     -17.41226466      -0.44321653     -15.66495075     -14.50124347      -1.44997397       0.19199393     -11.87375266     -10.94317220     -15.28987810     -37.27793701     -14.96853131     -12.05469686
        -8.30997151     -11.70633308     -14.20017392     -12.08929270      -7.43664132     -34.77481013     -34.47199068     -39.99584315      -2.33204039      -0.00755050      -9.59121194     -11.20887496      -0.16142670      -1.91154388     -24.29751009      -7.04120683      -3.53617502      -4.74870914     -16.79350705     -18.37587414
        -0.06153310     -16.27794768     -15.73888382     -14.31819779       0.18342893     -13.33245968     -11.02636292     -15.39151273     -40.57216408     -14.79714756     -15.08481159     -10.84284752      -6.68442392      -9.34226941     -14.10155469     -11.34680693     -38.21836435      -9.82363312     -12.91678745      -6.46940418
       -11.38853714      -0.64531649      -2.82896187     -16.47153580     -17.68270587      -0.01883610     -16.35634368     -15.88738516     -11.80702294       0.04239605       0.21983692     -13.69693037     -12.81209517     -15.56977821     -34.87437459     -42.02075697     -14.71689763     -15.17022337      -5.20730304      -7.61263850
       -11.90049358     -34.21135713     -13.41470707      -7.91077236      -9.01733267     -13.04568702      -1.24717188      -0.84556052     -16.24543480     -17.01896831       0.21769565     -16.07346926       0.18680090      -9.58572753     -16.02942265     -38.09825236     -13.38921493      -3.91538466      -6.04593429      -8.72505974
       -30.08773947     -33.26466850     -10.39974582     -11.10076713      -9.95875996      -0.94820179     -16.97691566     -16.47735913       0.02190822      -6.42679997      -7.68980455     -36.79549869      -4.62813486      -7.19001310      -9.33887272      -7.95412738      -1.52187312     -17.34009702      -0.34707741      -0.08902333
       -32.65534970     -37.76719179      -3.16971408      -8.18731320     -11.12195108      -9.11266644      -5.54622099      -1.78043713      -0.16333369     -35.06956668     -11.44941137      -5.39386993      -0.47961504     -33.56361687     -36.04529640      -7.82947633      -0.49190267      -0.18119399       0.07189195     -25.94689373
       -20.29906359      -8.74307391     -22.74369228     -10.75669246     -11.75493600     -12.71159878     -25.40445539      -4.45370571      -8.78113981     -17.02589628      -6.25799171     -11.20013786     -11.31237429     -20.79965329     -21.86002272     -22.01455923     -34.08449284     -27.39305510     -19.42211600     -11.92135297
        -9.65492793     -18.81316962     -12.10439150      -9.70649786      -7.15369379      -7.24792431     -27.14016480     -28.61608938      -3.94419403      -5.08122852      -7.29192778     -18.84464363     -17.36035101     -29.50330643     -13.74289486     -29.43396731     -25.88174952      -7.00485332     -10.65301053     -23.10494772
       -14.87478474     -17.15742280     -10.96125506      -9.63959460     -10.34688498     -23.86979431     -10.48360232     -31.29301543      -4.54145455      -5.85503571      -3.61653679      -5.33526616     -15.01456292     -16.88715738      -7.01058394     -13.71255449      -8.46733641      -9.18607262     -10.66066696     -11.68411616
        -9.43079428     -14.77694286      -8.15914840      -7.01611691       0.22509627      -8.54429997     -10.82469517     -11.66698129     -30.01595729     -24.98146059      -9.01962645      -7.08452020      -7.30566182      -8.27594982      -8.23212884     -29.04641988     -16.74677618     -33.88310877     -27.57056198     -28.55784078
       -24.41291459     -24.39841984     -25.61106811     -27.36065009     -26.65435629     -22.97092952     -21.57559959     -20.64937691     -19.70412906      -4.85517575     -20.26760486     -14.33060564     -15.40184297      -7.57512809      -6.94695313      -8.10512147      -6.37288421      -9.45566970      -8.48896976      -7.61599024
        -9.59259853      -7.31180029     -32.78785899     -31.21607896     -29.05854217     -26.66743657     -24.98003430     -27.57717161     -19.42641459      -7.07787258      -8.24056033      -9.86985032      -6.60225753      -8.03004500      -7.76163550      -8.38630062     -22.92900268     -24.70218730     -19.47787719     -22.65312044
       -26.57762313     -18.46395934     -30.51890230     -30.21532647     -27.94291306     -16.11336646     -22.37251895     -16.03109734     -17.67367980     -13.62954291     -11.91720180     -10.90502201     -14.96134490     -13.53357552      -9.27437767      -9.99455865     -27.90180522      -3.53028158      -3.03859144      -5.20915989
        -5.31490577      -3.68453466     -27.81384297     -26.91316319      -8.65892651     -23.50700341     -39.33602595     -20.62133408     -20.33265603     -19.31018470     -18.40905120     -19.12205145     -17.99467094      -3.04436015      -6.38241752      -2.66907592      -5.41992324      -5.02603803      -6.98408175      -6.63149117
        -7.58157407      -8.76619208      -9.73372753     -10.25324272     -13.32393487     -16.28986486     -16.72367784     -16.80371333     -15.33169370     -17.54452911     -12.93782094     -16.58928645     -18.50268513     -11.95028739      -9.71276337     -10.33549131     -30.42153842     -17.44350908     -19.31487202     -18.67930146
        -9.35530217     -11.96430081     -11.78651386     -14.16565817      -7.67324698      -8.89112357     -17.14413406     -31.72972371     -23.81884636     -18.21784309      -4.39970561      -3.62909546      -7.71987946     -13.01947164     -15.01830657     -17.92016249     -19.42399558     -16.81502394     -21.81820047      -8.57748242
       -19.50000000     -15.57779518     -12.57629439     -10.09359270      -8.03512282      -6.32814514      -4.92547855      -3.73094018      -2.72632701      -1.89873791      -1.25929126      -0.77404534      -0.43673550      -0.23794618      -0.16328177      -0.20339481      -0.35578229      -0.61208168      -0.96962651      -1.42630664
        -1.98062652      -2.63221808      -3.37505222      -4.23330681      -5.19885844      -6.31909739      -7.58509738      -8.96929635     -10.47523504     -12.11004953     -13.88627216     -15.75431053     -17.71978736     -19.87039937     -22.18974912     -24.72573107     -27.53999036     -30.72248011     -34.58998240     -39.89442222
       -49.31274580     -49.35453900     -49.35820512     -49.35121400     -49.34338614     -49.33127193     -49.31654277     -49.30118990     -49.27401512     -49.24369133     -49.01446097     -49.01446052     -49.01446044     -49.01446035     -49.01446025     -49.01446008     -49.01445975     -49.01446010     -49.01446055     -49.01446095
       -49.12583877     -49.13279462     -49.14097661     -49.15016849     -49.16212077     -49.18173000     -49.21591577     -49.23712578     -49.27707553     -49.31569501     -49.33096300     -49.33396473     -49.33992800     -49.01446145     -49.01446118     -49.01446126     -49.01446149     -49.01446192     -49.01446287     -49.01446379
       -49.01446425     -38.59516976     -32.86707202     -28.96015820     -25.90753515     -23.48390309     -21.53067395     -19.97995356     -18.78074313     -17.86153330     -17.20293573     -16.74881844     -16.49108034     -16.36903531     -16.25026006     -16.12211528     -15.99475081     -15.87343476     -15.75298293     -15.62838123
       -15.50445906     -15.38849336     -15.27540424     -15.16897824     -15.07018299     -14.97720373     -14.88933981     -14.79304730     -14.67149822     -14.42471040     -13.84480803     -12.63794850     -11.84402951     -11.45993844     -11.43163552     -11.74797485     -12.41767581     -13.45075323     -14.88860383     -16.79533978
       -19.50000000     -19.50000000     -19.50000000     -19.50000000     -19.50000000     -19.50000000     -19.50000000     -19.50000000     -19.50000000     -19.50000000     -19.50000000     -19.50000000     -19.50000000     -19.50000000     -19.50000000     -19.50000000     -19.50000000     -19.50000000     -19.50000000     -19.50000000
       -19.50000000     -19.50000000     -19.50000000     -19.50000000     -19.50000000     -19.50000000     -19.50000000     -19.50000000     -19.50000000     -19.50000000     -19.50000000     -19.50000000     -19.50000000     -19.50000000     -19.50000000     -19.50000000     -19.50000000     -19.50000000     -19.50000000     -19.50000000
       -16.73808990     -42.15401731     -41.17604330     -17.57443356      -1.24634865      -1.33845944      -1.37536369      -1.35779497      -1.29795621      -1.20741485      -1.10583573      -1.03686810      -1.04247837      -1.12697779      -1.36703764      -1.56987084      -1.59727014      -1.53056260      -1.43177446      -1.28309277
        -1.06964978      -0.90058240      -0.89808304      -1.08740445      -2.75628778      -2.85287506      -2.74455973      -2.48402010      -2.17701649      -1.93370562      -1.83757672      -1.92477855      -2.17225582      -2.49217976      -3.23839773      -3.43164995      -3.19333497      -2.66020579      -2.06209126      -1.59703801
        -1.40922473      -1.55769751      -2.03705481      -2.68872991      -2.56846374      -2.71303847      -2.72246177      -2.61411693      -2.43560253      -2.23726541      -2.08241202      -2.03280188      -2.12551146      -2.33790763      -2.83561940      -3.11380197      -3.09096670      -2.86231139      -2.54609763      -2.19477533
        -1.91291703      -1.77132900      -1.89865008      -2.34721945      -4.51218843      -4.64424407      -4.52937281      -4.22453646      -3.85814534      -3.56149131      -3.43209157      -3.51973396      -3.80463531      -4.18635420      -5.05791541      -5.32654577      -5.07058017      -4.43932890      -3.72804524      -3.16727550
        -2.90737964      -3.05491020      -3.60809798      -4.38387763      -0.73149062      -0.82186955      -1.00942631      -1.24033472      -1.42925406      -1.48679954      -1.37804007      -1.15460213      -0.91995186      -0.76459344     -15.57508087     -15.59091657     -15.44773987     -15.16329994     -14.68696448     -14.24241422
       -14.06742664     -14.25462282     -14.74309375     -15.29741259     -21.04590087     -21.13539686     -20.60070412     -19.68967610     -18.76697060     -18.16155231     -18.07786061     -18.54818761     -19.41560888     -20.37541809      -4.92950537      -5.09247108      -5.20595927      -5.25038187      -5.21793763      -5.10173395
        -4.92575418      -4.76454780      -4.70360144      -4.77365411     -23.16509683     -22.78989913     -22.37883728     -22.09180996     -22.02429633     -22.19198730     -22.53587934     -22.94052624     -23.25488795     -23.34589222      -1.19627938      -2.32139099      -2.36734037      -4.01138215      -1.07216436     -15.05850377
       -19.55695772      -4.97524660     -22.66386250      -1.87998216     -46.59705062     -15.52364062     -16.87115164     -13.19064024      -1.01273125     -43.34183541     -17.09503622     -17.27845992      -6.04311344     -27.15986639      -0.13383525     -42.24242925     -46.86400149     -16.13990301     -17.07606520      -9.27921554
       -19.29077865     -32.81797904      -0.70825931     -42.02402146     -42.65322126     -46.68082473     -15.83340753     -16.95040289     -11.14129657     -16.09210322     -22.94465191     -29.77402688     -36.77024577      -1.22035165     -41.96215346     -42.15670618     -42.46901869     -42.85291397     -46.54906470     -15.67811640
       -16.91207608     -42.10092458     -13.99759782     -16.71661908      -5.59402763     -22.47975468     -17.49318517      -3.60221478      -0.19526844     -46.76126990     -16.46330837     -17.17623467      -7.58210833      -0.34610375     -46.78177142     -15.97979003     -17.00818212     -24.97375678     -17.62564397      -2.74977914
       -16.73544443     -12.37227175     -46.67382499     -46.62698235     -14.99889016     -41.15349509     -45.41961160     -18.92730640     -17.54029949     -17.37628029      -4.72137892     -16.30296485     -17.13072778     -16.80676643     -11.60366713     -31.28955423      -2.67531696      -0.08282230      -0.49557107     -46.92120937
       -44.31733674     -16.66029003     -17.22841266     -17.29764565     -17.43737673     -17.52558390     -17.54828861     -46.71963169     -17.82322368     -43.79909946     -14.32126531     -11.50670524     -16.72505033     -16.74108129      -1.74983223      -4.02610442     -41.07957981     -41.74337644     -14.75603276     -15.24326326
       -46.16360771     -20.45099517     -26.09297013      -8.16081283     -13.95347492     -16.77047443     -16.82705327     -35.32982525     -15.11784122     -16.75835953     -16.71167783     -45.04304000     -46.89932841     -46.93688356     -43.82385838     -16.73012609     -11.52239857     -17.33841716     -16.71887933      -6.78574786
       -17.45986521     -12.33855475     -15.76108879     -42.51124606     -44.60935646     -13.20447009     -16.74165638     -14.56051719     -41.38689291     -41.00624659     -41.10589450     -41.92033580     -14.88857710     -15.38361282     -45.88539265     -46.39290811      -9.75305815     -24.14382917     -28.43551413     -16.78058564
       -16.85890705     -16.83249566     -16.75190206     -11.83915911     -11.80727555     -16.74584583     -41.27975292     -41.75630731      -1.00489961      -5.52078593     -21.43767388     -20.21305160      -1.17820408      -1.89908260      -1.17596004      -0.97867728      -1.35470234      -4.74548125      -0.88866572      -1.22131326