# File generated by Flopy version 3.4.1 on 07/22/2024 at 08:56:18.
BEGIN options
  SAVE_FLOWS
  NEWTON  UNDER_RELAXATION
END options

BEGIN packages
  DISU6  ref.disu  disu
  NPF6  ref.npf  npf
  IC6  ref.ic  ic
  STO6  ref.sto  sto
  WEL6  ref.wel  wel_0
  CHD6  ref.chd  chd_0
  RCH6  ref.rch  rch_0
  OBS6  ref  obs_0
  OC6  ref.oc  oc
END packages

