# File generated by Flopy version 3.4.1 on 07/22/2024 at 08:56:21.
BEGIN options
  BUDGET  FILEOUT  ref.bud
  HEAD  FILEOUT  ref.hds
END options

BEGIN period  1
  SAVE  HEAD  LAST
END period  1

