# File generated by Flopy version 3.4.1 on 09/08/2024 at 22:08:03.
BEGIN options
  PRINT_INPUT
  PRINT_FLOWS
  SAVE_FLOWS
END options

BEGIN dimensions
  MAXBOUND  8
END dimensions

BEGIN period  1
  5925   -2500.00000000
  7476   -2500.00000000
  5926   -2500.00000000
  7477   -2500.00000000
  5927   -2500.00000000
  7478   -2500.00000000
  5928   -2500.00000000
  7479   -2500.00000000
END period  1

