# File generated by Flopy version 3.4.1 on 09/08/2024 at 22:08:03.
BEGIN griddata
  strt
    INTERNAL  FACTOR  1.0
       -19.75000000     -16.12173998     -13.65955290     -11.68813360     -10.10284824      -8.83862392      -7.84707508      -7.04966320      -6.42828679      -5.97666243      -5.68828466      -5.53651053      -5.51072049      -5.59954010      -5.79434113      -6.09968450      -6.49778035      -6.97282375      -7.52293138      -8.14147696
        -8.84537045      -9.61986932     -10.47698874     -11.41584008     -12.43668630     -13.57600132     -14.85363056     -16.19150025     -17.62410292     -19.15260242     -20.78867665     -22.47201673     -24.20139029     -26.09266421     -28.06615256     -30.15407277     -32.42034112     -34.94770274     -37.96006320     -42.00947370
       -49.37010525     -49.41748318     -49.41812926     -49.40551732     -49.39346218     -49.37797529     -49.35509426     -49.33428703     -49.30413012     -49.27219491     -49.02169117     -49.02169083     -49.02169073     -49.02169059     -49.02169041     -49.02169014     -49.02168963     -49.02169020     -49.02169091     -49.02169151
       -49.19865370     -49.20814870     -49.21842198     -49.23185410     -49.25224663     -49.28356820     -49.33273963     -49.37392823     -49.43105405     -49.47710543     -49.50171859     -49.50783183     -49.51769431     -49.02169223     -49.02169187     -49.02169199     -49.02169234     -49.02169300     -49.02169445     -49.02169585
       -49.02169654     -38.43357762     -32.74091173     -28.66487740     -25.45887607     -23.04801322     -21.11370859     -19.59113752     -18.43887111     -17.55560399     -16.92369154     -16.48541384     -16.22085599     -16.09147510     -15.97285279     -15.85669436     -15.73859867     -15.62206114     -15.50433079     -15.38732632
       -15.26994948     -15.15894098     -15.04745305     -14.94124829     -14.84398543     -14.75612986     -14.67168258     -14.58741779     -14.48279367     -14.32147536     -13.98172850     -13.34625510     -12.86088997     -12.61100914     -12.59525138     -12.83183586     -13.34727201     -14.17264853     -15.36242782     -17.01158058
       -19.75000000     -19.75000000     -19.75000000     -19.75000000     -19.75000000     -19.75000000     -19.75000000     -19.75000000     -19.75000000     -19.75000000     -19.75000000     -19.75000000     -19.75000000     -19.75000000     -19.75000000     -19.75000000     -19.75000000     -19.75000000     -19.75000000     -19.75000000
       -19.75000000     -19.75000000     -19.75000000     -19.75000000     -19.75000000     -19.75000000     -19.75000000     -19.75000000     -19.75000000     -19.75000000     -19.75000000     -19.75000000     -19.75000000     -19.75000000     -19.75000000     -19.75000000     -19.75000000     -19.75000000     -19.75000000     -19.75000000
       -17.11161352     -43.78472685     -41.03182515     -17.71846957      -6.88980888      -6.92904833      -6.87425845      -6.75996088      -6.63420583      -6.53413263      -6.48615366      -6.51349814      -6.61872218      -6.76615747      -7.14781454      -7.23476823      -7.09024179      -6.83654216      -6.60476601      -6.42932135
        -6.32376267      -6.35173240      -6.55227659      -6.86532467      -8.92526192      -8.96745131      -8.79547748      -8.48433082      -8.15530079      -7.92799053      -7.88220312      -8.03666648      -8.34132650      -8.68325111      -9.47135011      -9.55041390      -9.19093611      -8.56474847      -7.92265849      -7.49037029
        -7.40127250      -7.68203846      -8.27931332      -8.97449428      -7.87520279      -7.94597695      -7.86275947      -7.67481104      -7.45730843      -7.27943175      -7.19916547      -7.24845905      -7.42407122      -7.67049909      -8.25263799      -8.37777900      -8.17919153      -7.79971154      -7.40016610      -7.08307407
        -6.94804659      -7.01139954      -7.31176076      -7.82367308     -10.20197924     -10.25269292     -10.07150449      -9.73936715      -9.39041160      -9.14854789      -9.09513336      -9.25428335      -9.57528349      -9.93975672     -10.77449438     -10.87569890     -10.49391783      -9.81629978      -9.13917975      -8.67873723
        -8.56518947      -8.86073385      -9.49448008     -10.23587348      -6.68835122      -8.40985917      -7.54833719      -9.65796675      -5.63340030     -15.29136790     -22.34573533      -8.55000217     -22.41496802      -8.76488682     -46.50617296     -15.29379788     -17.24237035     -20.09677643      -5.57376780     -44.99881235
       -16.83182034     -17.53999876     -13.29873596     -32.10578501      -6.09913170     -44.02266583     -46.68967440     -15.87831932     -17.40466051     -16.47571794     -25.50399582     -36.65836832      -7.20825353     -43.77997525     -44.42115730     -46.52859617     -15.58662918     -17.27379953     -18.22627305     -22.72924309
       -28.64498118     -34.21362797     -39.64379527      -7.92957681     -43.67239840     -43.93060201     -44.19631530     -44.62703247     -46.40949586     -15.43813471     -17.24119798     -42.17292964     -14.06955793     -17.07530957      -8.31265246     -22.05716423     -17.65859450     -10.76416944      -5.50938635     -46.70818435
       -16.18999551     -17.46698601     -14.83982940      -6.59726829     -46.61579176     -15.73279840     -17.36725677     -30.32525815     -24.05477434      -6.43679006     -17.10772508     -13.31838300     -46.60488312     -46.47194845     -14.77874813     -41.01917160     -45.35644502     -18.59275700     -17.68268901     -17.55999732
       -11.95723507     -16.02989064     -17.44740552     -17.17648154     -12.87992440     -31.09859365      -9.70951478      -5.72611408      -5.45270745     -46.74476676     -45.68655878     -16.40043835     -17.50287733     -17.51327384     -17.61517798     -17.68167544     -17.68430349     -46.56255006     -17.53261273     -43.54073720
       -14.89322981     -12.64676783     -17.09247482     -17.08851660      -5.89246197      -7.23447616     -40.93310532     -41.75285999     -14.55918258     -15.01668291     -46.14861252     -20.07845605     -25.65303372     -10.19855504     -14.77640977     -17.14268808     -17.18500195     -35.22091745     -14.89080975     -17.13239361
       -17.07653524     -45.99698270     -46.70694487     -46.76932524     -45.33341447     -17.09943527     -12.67016418     -17.54267147     -17.09989385      -9.17351548     -17.63022680     -13.15712782     -16.10746292     -42.59248998     -44.57119160     -13.97847547     -17.09283129     -14.38693541     -41.24934589     -40.86368348
       -40.96358869     -41.93782252     -14.67201162     -15.15624084     -45.82512887     -46.33480889     -11.42188095     -23.70020554     -28.13484986     -17.15775538     -17.20768955     -17.17056491     -17.12616133     -12.90821728     -12.83899980     -17.08438395     -41.14326796     -41.76652783      -6.44366966      -6.33280854
        -6.37647072      -6.51493225      -7.00219427      -7.44461564      -6.70074893      -6.71104064      -6.95135454      -7.15519376      -7.19103406      -7.01187774      -7.14689594      -7.23684539      -7.59089589      -8.03756581      -7.55640045      -8.31569088      -8.27313119      -8.62259356      -6.97396890      -7.97854506
        -8.90817718      -7.70138059      -7.53490062      -7.97263927      -8.62107290      -8.23829869      -9.17094753      -8.70952903      -8.87140787      -9.36685686      -9.50959913      -9.22088253      -9.85994233      -9.47067314     -10.14794607     -10.68455926     -10.82404644     -10.50287162      -6.27811381      -6.31724825
        -7.10920324      -6.63550915      -6.79052761      -7.11480467      -7.44936893      -7.40125327      -7.22421174      -8.18683667      -8.57709115      -8.28222205      -7.62091307      -8.91983136      -8.32565848      -8.86397205      -9.78420742     -10.09188677      -8.72099952     -10.56415893     -11.42710461      -6.18898839
        -6.41532765      -6.28696572      -6.44852989      -7.12171507      -7.23536468      -6.79287430      -6.67493429      -6.83548409      -6.98834877      -7.42130062      -7.70631897      -7.63206344      -7.10234438      -7.53776093      -8.36288068      -8.82890618      -8.01969505      -7.98446408      -8.52434750      -9.53900864
        -8.34010525      -8.03465882      -9.16439310      -9.79325942     -10.12206033      -9.91863711      -9.21732302      -8.47183855     -10.13649220     -11.12483777     -11.10137636     -11.25770750      -6.23311838      -6.53122783      -7.34951823      -6.83427110      -6.88884138      -7.40171261      -7.71055951      -8.57397740
        -9.63799949      -9.45470485      -9.04687198      -9.57553621     -11.13915041     -10.66560251      -6.93964530      -6.88401887      -6.79112968      -7.66223669      -8.62916433      -9.54871836      -9.68987448      -9.31388367      -8.91672329      -8.49544496      -9.12022624      -6.30826327      -6.20283986      -6.83831997
        -6.70232272      -7.75375222      -8.19523908      -7.84182630     -10.24230249     -12.01349228     -10.27191575      -7.01688707      -8.79175309      -9.51192485      -6.10526888      -6.99959182      -6.54457309      -8.01341187      -7.80534873      -8.55219876     -10.65767522     -11.12701728     -11.84023908      -6.83621231
       -10.28915823      -8.03513018      -6.55037223      -6.60195276      -6.63502278     -10.19815605     -10.68595379     -10.57008431      -9.88492118      -9.85479246      -6.73172983      -6.75193581     -11.52707529      -9.26004608      -9.44129174      -6.75875113     -10.28821060      -6.62554800      -9.75322537      -5.89564503
        -5.93557062      -6.18161855      -6.13404838     -17.22579556     -19.75000000     -21.42160231     -14.05312081     -14.20418667     -17.24248176     -19.75000000     -46.65793671     -19.75000000     -17.42760655     -27.05600432     -15.22413826     -15.21346482     -19.75000000     -17.16817021      -8.33427729      -8.48580728
       -15.95309710     -15.91368613      -9.22327515     -18.01290347     -17.96384392     -45.01982916     -49.30735855     -14.72546295     -14.71358521     -15.36466163     -15.32769581     -46.43344938     -42.03866539     -17.09333931     -13.58867103     -17.58631435     -17.50400710     -12.59088702     -17.08506239     -41.32330226
       -10.05098380      -5.89889779      -5.94392822     -14.84668941     -14.47372839     -15.20574243     -15.25957785     -14.72807943      -8.42135047     -16.07681384     -17.97974364     -40.52917607     -14.71576419     -43.34342396      -9.48139765      -5.74435638      -6.23604849     -14.89849165     -15.61182262     -13.67871784
       -15.93171178     -15.48929348     -15.30328025     -15.50701011      -8.90236993      -8.04661316     -16.09354588     -18.41090915     -42.35952302     -14.76831517     -44.47414364      -5.61450604      -5.53383984      -6.28632254      -6.76447163     -13.29167202     -15.82898316     -12.57546093     -13.87860478     -15.82681663
       -15.45610387     -15.36947389     -15.35344921      -9.38419767      -7.47040441     -16.42363909     -16.23785953     -18.92028756     -19.39357709     -38.67436930     -42.76820545     -14.83718852     -14.85825047     -44.75695021     -14.49281006     -13.52491403     -15.40184684     -13.17272201     -10.11791248      -9.13044100
        -7.80758016     -44.59549326     -41.46313416     -14.12461309     -13.09815312     -13.09560359     -11.64008627     -12.07211691     -13.53735991     -15.35239309     -15.31645095     -15.39272068     -15.48076386     -15.54215250     -15.53851591     -43.12696646     -42.49362194     -40.23186517     -41.69393743     -42.52898625
       -40.53866406     -41.90383190     -43.31832246     -44.08949883     -23.31077900     -32.95199884     -33.17677680     -38.14488867     -13.70693396     -13.58622738     -15.44006373     -13.79491763     -33.09658318     -15.13675296     -13.97313321     -34.72282924      -5.98749541      -7.19700875      -6.37441814      -7.33539866
       -10.01977077     -10.89921547     -12.53505765     -11.67815523      -8.72059138     -13.33547693      -9.51096725     -44.55638591     -10.50287265     -12.48436598     -11.33453552     -12.40694956     -15.77378887     -15.59463855     -15.73812376     -15.78548202     -40.18175047     -43.65650610     -44.89961368     -41.70412299
       -43.22362536     -24.63857022     -20.74251584     -35.40440547     -24.73490674     -31.17678237     -38.67075919     -39.84356279     -35.41690575     -14.79495923      -9.67684268     -13.07527305     -15.37883376     -16.06401805     -14.38907483     -12.12731790     -14.80223694     -29.58311684     -35.33328199     -15.25285132
       -15.93568489     -15.83065405     -14.92425223     -14.03891049     -36.53479875     -35.49900645      -6.02999195      -6.44447523      -7.53466306      -9.26373551     -11.82271052     -10.99882818     -13.12979448     -43.00731472     -44.68071043     -10.16195053     -13.69497728     -16.12091299     -15.64284094     -37.65169240
       -44.71510858     -45.05861201     -39.68457616     -42.39579420     -43.74674826     -44.98660449     -26.20805257     -21.97113006     -36.43335999     -22.91979661     -29.42193286     -40.53783016     -40.44474461     -15.16230422      -8.72460712     -12.75403829     -16.01756507     -16.20540415     -10.79005739     -26.90347042
       -16.00178926     -15.18603068     -14.97911941     -36.72823246     -37.05116202      -5.94409766      -6.63199610      -7.88176057      -8.84055893     -12.89852642     -11.35334488     -12.85149598     -40.33799192     -42.96875772     -44.79607854     -13.20785895     -15.42620749     -15.89614695     -15.57982270     -42.36285842
       -42.20086944     -27.75895202     -25.84154183     -30.51892442     -41.36113641     -12.33177638     -12.46268227     -12.57514869     -16.17609684     -11.12167993     -27.63950931     -15.72054061     -13.90932526     -15.20673082     -36.65890820      -5.88071389      -7.59155756      -9.60904944     -12.63492754     -12.53346992
       -43.12131724     -43.58037385     -38.93423249     -26.94129374     -31.21483261     -12.42242521     -12.65929352     -14.38800691     -13.54027857     -33.01790680     -12.53991086     -41.11402212     -41.49783927     -28.48978137     -12.56175097     -11.70848222     -13.68020724     -29.60959051     -33.47167233     -12.14105062
       -30.07312113     -31.61618821     -33.38517652     -29.50450826     -30.44076039     -31.99277843     -33.13261309     -35.26305250     -34.45990338     -36.96797981     -35.26397989     -31.72665138     -30.89604724     -30.00164422     -12.24793104     -27.61372885     -37.39693129     -33.48255561     -31.36111727     -35.58321930
       -32.84986188     -34.25320233     -13.12988571      -6.90491619      -6.25430411      -5.65508133     -15.32309698     -15.66287164     -15.63158224     -15.12615012     -15.24077058     -15.90101026     -17.31491012     -40.40797389     -14.61496009      -5.36227539     -16.62402528     -11.24552689     -11.59993784     -15.25158320
        -6.14302089      -6.68916708     -11.61673830      -8.58297063     -42.50756173     -14.34760405     -14.40136620     -40.88638800     -42.48342246     -22.08278315     -21.08896735      -7.71222367     -12.92328718     -32.95045341      -6.09157271      -6.73000718      -8.11669799      -8.12840169     -38.10502624     -15.08897852
       -15.74761676     -12.71739998     -30.83658791     -15.11361363      -5.76382668      -7.85848536      -9.81723697     -38.05067944     -41.46659375     -26.12203777     -37.40457911      -7.10481666      -6.76121649      -5.60557798     -14.37347606     -17.39024474     -12.87781827     -15.01600358     -14.29398832     -16.27853210
       -17.96830441     -37.01899914     -14.37490601      -5.40438528     -16.94100019      -5.73784872     -11.09695128     -39.76444794     -15.14771685     -13.92740072     -13.88545775     -13.42218499     -38.14340813     -40.66582783     -37.88345508     -38.62582099     -23.91894521     -22.70970069      -8.39969995     -11.66169180
       -30.18428911      -6.24707819      -6.96242916      -8.23391504      -7.47024149      -6.90106417      -7.59803540     -11.04711375     -27.80932352      -7.48689544      -6.10694410     -20.32151247     -15.70032496     -13.84468403     -11.26534052     -12.17388789     -15.98207800     -30.85423434     -35.52770135     -14.54898529
       -35.42054483     -12.71944959     -13.06738942      -6.61759510      -7.08602253      -7.11106257      -8.03918159      -8.76293919      -6.40091336      -7.15666953     -12.19135366     -16.20370770      -6.20598417      -8.21960765      -8.36252645      -6.67187570      -6.19873094      -8.60198309      -6.95403518      -6.14089441
        -6.38152120      -6.44291898      -6.72299130      -6.37049219      -6.50207342      -6.51993962      -6.71057280      -6.53235759      -6.60113066      -6.57280051      -7.06413743      -6.47445062      -7.09320915      -6.21465545      -6.83740950      -6.90116336      -7.12536646      -7.23055215     -36.19946354      -9.85157225
       -15.58486631     -11.73281415     -24.98148724      -9.68394475      -9.96291245     -26.91965986      -9.99199003     -26.23340321     -22.24057945     -10.87370445     -29.29783139     -37.57131541     -12.85624737     -11.74870360     -12.01987980     -11.59440935     -10.81661959     -16.09641005     -16.87319779      -7.72843654
        -6.02230454      -7.32860136      -8.04196787      -7.26397957     -33.53819623      -8.92682604     -24.02552361     -24.04493726      -9.88659642      -8.75317304     -27.27088140     -34.54564850     -38.03538997     -36.16108016     -34.54410724     -36.03536909     -32.40590150     -33.98549187     -32.00757982     -35.89115035
       -34.54764417     -12.24690330     -11.21814851     -12.01170753     -10.67368106     -16.54341108      -5.62738203      -8.27952125      -7.58891907      -7.82568026      -8.26131054      -7.49119488     -26.02938529      -7.85180295      -9.38346984      -7.92729464     -24.07873057     -11.33735542      -8.90916326      -9.71950638
       -21.24386133      -8.59323428      -9.88771917      -9.35910636     -10.29560643     -10.89675624     -12.00951630      -8.09189518      -7.64149081     -27.28392686     -22.50777131      -7.58639559     -27.33902551     -24.20811843     -20.92516803     -18.73674203     -19.40842805     -17.39154861     -18.59311691      -6.55573261
        -6.77762502     -25.56817174     -28.77746771     -29.54738221     -30.22924590     -32.47223794     -32.93667400     -23.78301548     -24.24414864     -10.98847240     -14.90763209     -13.22462483     -10.24497706     -12.77683620     -13.23594198     -20.32567485      -7.08398269     -13.26585516     -38.44519755     -28.56141542
        -5.30510903     -17.61040314      -8.50849839      -9.28969930     -35.91378225     -32.23775494      -8.61061757     -16.22075111     -34.04715037     -11.91363261     -12.39103676     -12.58498166     -11.93260352     -11.53353429     -11.83571149      -7.92598150     -23.06104508     -11.13992084     -10.45344224     -10.71787158
        -9.47626786      -8.99983685     -10.41772316     -15.84287223     -10.30101767     -10.93168512      -9.92076920     -12.30108480     -12.04654407      -9.02655726     -21.30078939      -7.31082175      -8.34797745      -9.33579734      -8.86029561      -9.24984880      -9.00824706     -29.97625735      -7.91017272     -17.41905269
       -30.86525705     -11.26218975     -12.19953843     -12.81061902     -12.72322843     -13.26906766     -13.65407916     -13.96863581     -10.83932609     -11.23662964     -10.54149108     -11.89036611     -15.90850966      -9.32316563     -10.72918225      -8.29518810     -19.88231423     -18.86797782     -18.91596055     -20.33320844
        -6.60541917      -5.98875373      -6.33127364      -5.57413592      -8.06130975      -8.80328281     -28.55199524     -11.23513027     -17.17396701     -18.84116239     -17.25480180     -17.34385970     -15.76596782     -13.83466168      -7.60175925      -9.96458903     -14.73301281     -14.53143458     -14.29091829      -7.34452649
       -10.31594247     -10.68901453      -9.98363857     -11.33596929     -12.28903145     -10.34804301     -12.67441668     -12.13671401     -13.11251770     -11.68342972     -12.47395709     -12.38864630     -10.97055045     -15.70414015     -17.33625814     -13.70897471     -12.36555318      -9.41292464      -9.78853099     -10.09366394
        -9.49875101     -37.41968113     -15.02993443     -14.78713905     -14.92028100     -14.68281737     -15.23208332     -13.73842912     -14.20780852     -13.15183633     -14.04255869     -12.89152843     -14.97040341     -14.15060887     -13.99270517     -14.38312502     -13.31617781     -15.70320267     -11.77744938     -12.66671125
       -13.55252757     -16.76849162     -17.91992325     -17.07968831     -17.27471087     -17.45848038     -17.49233688     -18.56459798     -17.62859311     -18.01008503     -18.56616298     -18.16867948     -18.96258396     -18.18025559     -18.43328217     -17.61674026     -19.30739399     -17.10052066     -18.63594990     -19.91971031
       -20.25227003     -16.86534738     -18.01050929     -18.14960229     -18.74298997     -34.10012069     -30.34053795      -5.64727111      -7.71711759      -8.12677353     -26.12452276     -15.16594406     -37.38693476      -9.36025093      -8.84830892      -9.31473064      -8.63488422      -9.34311355      -9.01466453     -10.16566555
        -9.72277392     -15.89252446     -15.77286063     -16.17157135     -16.81885296     -16.51982125     -17.02928223     -16.40852972     -16.82959716     -17.46315425     -17.03873435     -17.13047247     -16.63063029     -18.03403049     -16.23620836     -16.47225579     -14.90999726     -16.17216212     -14.93054170     -17.46263242
       -15.27075307     -13.45031564     -16.25853605     -15.99814289     -17.59297908     -10.26384971     -11.00697039     -10.93113578     -11.28244685     -11.54521425     -11.58725747     -11.35479552     -12.20044973     -11.33410220     -10.43812902     -19.85139661     -21.69969163     -22.41265725      -6.44800626      -7.11314408
        -6.63177065     -14.54246174     -11.74740524      -9.53950062      -9.77924241     -10.04727438     -10.21926229     -10.47389674     -10.75133774      -9.74886936      -9.46086550     -10.26921746      -9.19769582     -33.97499690     -12.53822919     -12.23181383     -12.07385717     -11.31731239     -19.78239828     -21.28712029
       -21.92139495     -20.34392561     -32.39499979     -31.47905888     -31.94017243      -5.72762288      -6.07786623      -6.00233730      -6.50507882      -5.74055538      -5.38888694      -5.41975178     -27.29707883     -25.76693415     -24.22948108     -28.32081182     -13.76937540     -14.40281515     -14.51738699     -16.35468470
       -13.68506555     -13.93126305     -15.85066057     -14.41841728     -15.44913168     -13.53917868     -15.45519330     -15.66564715     -15.01161448     -14.89744654     -14.05436312     -19.46855936     -14.61896690     -18.10858725     -19.16112627     -18.70849897     -18.42704193     -18.84215534     -19.72854421      -9.84830206
       -10.81953041      -9.67212476     -10.12234002      -9.70229642     -10.11639321      -9.69138398     -11.01008097     -10.54837366     -11.26927469     -10.61171864     -10.00028595      -9.26662522     -11.10976395     -10.12325157     -10.54291621     -10.85062266     -12.12840968     -11.81040830     -12.28775350     -13.17184611
       -10.74542394     -12.80345984     -11.97404885     -10.81693651      -6.98482158      -7.02869788     -13.06683190     -13.69275421     -11.35225468     -35.94396736     -35.33167719     -33.51705463     -35.71349368     -12.82080534     -12.42200250     -21.03760802     -21.26740333     -22.62958709     -22.34647093     -19.39182721
       -19.74293674      -7.01604464      -6.07241129      -5.32029301      -5.32817871      -5.40736607      -5.38356342      -5.57734357      -5.32459165      -5.42650502      -5.88545096      -5.41879133      -5.38519004      -5.85303069      -5.47470635      -6.21419440      -5.49916094      -5.63390146      -7.01752349      -5.98206350
        -5.66833278      -5.59412004      -5.90321529      -6.28135418     -24.27107454     -28.94920479     -13.13105425     -12.88837319     -17.67555733     -16.38289524     -19.25978622     -18.33267456     -17.59780890     -18.35505568     -13.56167152     -14.42476320     -12.78579137     -16.12895167     -12.85903213     -13.72661851
       -11.93463222     -15.00508187     -11.78724836     -13.80630198     -11.73322527     -12.75106151     -13.73066577     -18.16791271     -21.54119644     -13.01109128     -11.16593349      -9.76432567     -32.08921667     -21.35976244     -21.32102665     -20.61107357     -23.24991979     -20.61059351     -22.54953838     -19.30782589
       -18.93069439     -30.72559215     -30.48341638     -29.59594265     -26.81922730     -11.87418642     -14.41730395     -15.87307662     -16.97358920     -16.02088753     -16.20657659     -16.70892511     -16.12866211     -14.77841486     -12.78406265     -18.33019384     -17.13095215     -16.11965988     -17.04844605     -17.42584730
       -20.18516522     -18.25023196     -17.41320965     -16.41313019     -19.67831491     -16.99777294     -10.24119555      -8.55265552      -9.04640974      -9.24614013     -10.51478559     -35.20743085     -34.23008183     -30.84069347     -31.38375628     -27.15787668     -28.94266112     -32.55669670     -24.42551852     -29.93791235
       -26.37842251     -23.35862570     -26.92534584     -23.76946651     -28.61854207     -24.78954644     -21.85492561     -26.22656378     -30.04989231     -31.28744503     -29.50995576     -32.22361702     -24.79248646     -19.87829485     -29.38803596     -25.59406573     -24.82897429     -23.52652305     -24.97569489     -14.72787874
       -13.42157338     -15.87796096     -16.64600482     -18.47982459     -12.62524071     -12.84577729     -12.22790181     -11.98236342     -11.34792622     -12.67203031     -11.42035442     -10.42232387     -10.90000228     -13.59179617     -10.78759672     -10.65078957     -11.39950949     -19.35856509     -19.59239718     -20.81285185
       -15.83696848     -17.51507947     -15.64942104     -20.04992576     -22.44092726     -19.52687855     -21.16349938     -22.27983756     -21.27227467     -21.22875255     -19.89981142     -22.99535696     -21.93117348     -19.46241877     -25.17136449     -23.76822254     -22.69604163     -23.61429850     -25.22691784      -8.61162763
       -30.92665546     -24.36719374     -26.03804959     -26.78505331     -26.91094652     -21.82324266     -22.59175194     -18.18328893     -19.91208706     -21.85559487     -20.33254120     -22.04420408     -27.62005756     -24.28766527     -25.55326187     -26.40186168     -24.92210578     -27.69310751     -28.18688869     -27.28524154
       -28.75043339     -26.05997503     -24.92572686     -23.75535533     -28.86382941     -29.04101201     -26.29065892     -30.52216588     -31.74288700     -29.24019329     -27.34360810     -24.80385811     -27.29830143     -24.66256413     -25.42189212     -22.35954126     -27.08368800     -26.41904008     -29.70688661     -32.24201057
       -31.95685670     -22.92015036     -40.37614083     -39.21341263     -37.31745454     -35.76624429     -34.32407897     -33.14018593     -37.28759520      -8.60339606     -24.59116864      -9.33500406     -12.26010701     -21.41622379     -22.15438621      -7.06509074      -8.83539812      -8.74232919      -8.87898390      -8.94397538
        -9.13095387     -28.13908355     -27.62238645     -25.86827327     -30.06093748     -35.14408193     -36.75501635     -35.74562438     -16.46291077     -23.19710171     -12.49803211      -7.98945426     -21.22707209     -20.87184843     -18.49720737     -20.52399632     -19.42046873     -19.89776457     -21.85422689     -19.87863575
       -23.22538512     -22.66644821     -24.72286661     -26.27998651     -21.07392370     -28.32744737     -19.25000000     -16.31310965     -13.86153802     -11.87580708     -10.28419427      -9.01998029      -8.05357332      -7.27720127      -6.69726037      -6.24389928      -5.95136377      -5.79941360      -5.77653240      -5.86940414
        -6.06723627      -6.38149276      -6.77332964      -7.24907107      -7.80287262      -8.42963228      -9.13709679      -9.91477700     -10.75315208     -11.68576801     -12.67779610     -13.81620604     -15.08562110     -16.42347594     -17.85584918     -19.38129741     -21.03188013     -22.70545393     -24.41530033     -26.25254446
       -28.20343489     -30.28390854     -32.53761645     -35.04639903     -38.02100977     -41.96098665     -49.25000000     -49.25000000     -49.25000000     -49.25000000     -49.25000000     -49.25000000     -49.25000000     -49.25000000     -49.25000000     -49.25000000     -49.25000000     -49.25000000     -49.25000000     -49.25000000
       -49.25000000     -49.25000000     -49.25000000     -49.25000000     -49.25000000     -49.25000000     -49.25000000     -49.25000000     -49.25000000     -49.25000000     -49.25000000     -49.25000000     -49.25000000     -49.25000000     -49.25000000     -49.25000000     -49.25000000     -49.25000000     -49.25000000     -49.25000000
       -49.25000000     -49.25000000     -49.25000000     -49.25000000     -49.25000000     -49.25000000     -49.25000000     -38.66188696     -32.96922141     -28.89318724     -25.75854802     -23.32163594     -21.35120797     -19.79266506     -18.58679554     -17.70729295     -17.08239079     -16.65103015     -16.39769555     -16.29141616