# File generated by Flopy version 3.4.1 on 07/22/2024 at 08:56:21.
BEGIN options
END options

BEGIN griddata
  iconvert
    CONSTANT  1
  ss
    INTERNAL  FACTOR  1.0
    9.00000000E-05  9.00000000E-05  9.00000000E-05  9.00000000E-05  9.00000000E-05  9.00000000E-05  9.00000000E-05  9.00000000E-05  9.00000000E-05  9.00000000E-05  9.00000000E-05  9.00000000E-05  9.00000000E-05  9.00000000E-05  9.00000000E-05  9.00000000E-05  9.00000000E-05  9.00000000E-05  9.00000000E-05  9.00000000E-05
    9.00000000E-05  9.00000000E-05  9.00000000E-05  9.00000000E-05  9.00000000E-05  9.00000000E-05  9.00000000E-05  9.00000000E-05  9.00000000E-05  9.00000000E-05  9.00000000E-05  9.00000000E-05  9.00000000E-05  9.00000000E-05  9.00000000E-05  9.00000000E-05  9.00000000E-05  9.00000000E-05  9.00000000E-05  9.00000000E-05
    9.00000000E-05  9.00000000E-05  9.00000000E-05  9.00000000E-05  9.00000000E-05  9.00000000E-05  9.00000000E-05  9.00000000E-05  9.00000000E-05  9.00000000E-05  9.00000000E-05  9.00000000E-05  9.00000000E-05  9.00000000E-05  9.00000000E-05  9.00000000E-05  9.00000000E-05  9.00000000E-05  9.00000000E-05  9.00000000E-05
    9.00000000E-05  9.00000000E-05  9.00000000E-05  9.00000000E-05  9.00000000E-05  9.00000000E-05  9.00000000E-05  9.00000000E-05  9.00000000E-05  9.00000000E-05  9.00000000E-05  9.00000000E-05  9.00000000E-05  9.00000000E-05  9.00000000E-05  9.00000000E-05  9.00000000E-05  9.00000000E-05  9.00000000E-05  9.00000000E-05
    9.00000000E-05  9.00000000E-05  9.00000000E-05  9.00000000E-05  9.00000000E-05  9.00000000E-05  9.00000000E-05  9.00000000E-05  9.00000000E-05  9.00000000E-05  9.00000000E-05  9.00000000E-05  9.00000000E-05  9.00000000E-05  9.00000000E-05  9.00000000E-05  9.00000000E-05  9.00000000E-05  9.00000000E-05  9.00000000E-05
    9.00000000E-05  9.00000000E-05  9.00000000E-05  9.00000000E-05  9.00000000E-05  9.00000000E-05  9.00000000E-05  9.00000000E-05  9.00000000E-05  9.00000000E-05  9.00000000E-05  9.00000000E-05  9.00000000E-05  9.00000000E-05  9.00000000E-05  9.00000000E-05  9.00000000E-05  9.00000000E-05  9.00000000E-05  9.00000000E-05
    9.00000000E-05  9.00000000E-05  9.00000000E-05  9.00000000E-05  9.00000000E-05  9.00000000E-05  9.00000000E-05  9.00000000E-05  9.00000000E-05  9.00000000E-05  9.00000000E-05  9.00000000E-05  9.00000000E-05  9.00000000E-05  9.00000000E-05  9.00000000E-05  9.00000000E-05  9.00000000E-05  9.00000000E-05  9.00000000E-05
    9.00000000E-05  9.00000000E-05  9.00000000E-05  9.00000000E-05  9.00000000E-05  9.00000000E-05  9.00000000E-05  9.00000000E-05  9.00000000E-05  9.00000000E-05  9.00000000E-05  9.00000000E-05  9.00000000E-05  9.00000000E-05  9.00000000E-05  9.00000000E-05  9.00000000E-05  9.00000000E-05  9.00000000E-05  9.00000000E-05
    9.00000000E-05  9.00000000E-05  9.00000000E-05  9.00000000E-05  9.00000000E-05  9.00000000E-05  9.00000000E-05  9.00000000E-05  9.00000000E-05  9.00000000E-05  9.00000000E-05  9.00000000E-05  9.00000000E-05  9.00000000E-05  9.00000000E-05  9.00000000E-05  9.00000000E-05  9.00000000E-05  9.00000000E-05  9.00000000E-05
    9.00000000E-05  9.00000000E-05  9.00000000E-05  9.00000000E-05  9.00000000E-05  9.00000000E-05  9.00000000E-05  9.00000000E-05  9.00000000E-05  9.00000000E-05  9.00000000E-05  9.00000000E-05  9.00000000E-05  9.00000000E-05  9.00000000E-05  9.00000000E-05  9.00000000E-05  9.00000000E-05  9.00000000E-05  9.00000000E-05
    9.00000000E-05  9.00000000E-05  9.00000000E-05  9.00000000E-05  9.00000000E-05  9.00000000E-05  9.00000000E-05  9.00000000E-05  9.00000000E-05  9.00000000E-05  9.00000000E-05  9.00000000E-05  9.00000000E-05  9.00000000E-05  9.00000000E-05  9.00000000E-05  9.00000000E-05  9.00000000E-05  9.00000000E-05  9.00000000E-05
    9.00000000E-05  9.00000000E-05  9.00000000E-05  9.00000000E-05  9.00000000E-05  9.00000000E-05  9.00000000E-05  9.00000000E-05  9.00000000E-05  9.00000000E-05  9.00000000E-05  9.00000000E-05  9.00000000E-05  9.00000000E-05  9.00000000E-05  9.00000000E-05  9.00000000E-05  9.00000000E-05  9.00000000E-05  9.00000000E-05
    9.00000000E-05  9.00000000E-05  9.00000000E-05  9.00000000E-05  9.00000000E-05  9.00000000E-05  9.00000000E-05  9.00000000E-05  9.00000000E-05  9.00000000E-05  9.00000000E-05  9.00000000E-05  9.00000000E-05  9.00000000E-05  9.00000000E-05  9.00000000E-05  9.00000000E-05  9.00000000E-05  9.00000000E-05  9.00000000E-05
    9.00000000E-05  9.00000000E-05  9.00000000E-05  9.00000000E-05  9.00000000E-05  9.00000000E-05  9.00000000E-05  9.00000000E-05  9.00000000E-05  9.00000000E-05  9.00000000E-05  9.00000000E-05  9.00000000E-05  9.00000000E-05  9.00000000E-05  9.00000000E-05  9.00000000E-05  9.00000000E-05  9.00000000E-05  9.00000000E-05
    9.00000000E-05  9.00000000E-05  9.00000000E-05  9.00000000E-05  9.00000000E-05  9.00000000E-05  9.00000000E-05  9.00000000E-05  9.00000000E-05  9.00000000E-05  9.00000000E-05  9.00000000E-05  9.00000000E-05  9.00000000E-05  9.00000000E-05  9.00000000E-05  9.00000000E-05  9.00000000E-05  9.00000000E-05  9.00000000E-05
    9.00000000E-05  9.00000000E-05  9.00000000E-05  9.00000000E-05  9.00000000E-05  9.00000000E-05  9.00000000E-05  9.00000000E-05  9.00000000E-05  9.00000000E-05  9.00000000E-05  9.00000000E-05  9.00000000E-05  9.00000000E-05  9.00000000E-05  9.00000000E-05  9.00000000E-05  9.00000000E-05  9.00000000E-05  9.00000000E-05
    9.00000000E-05  9.00000000E-05  9.00000000E-05  9.00000000E-05  9.00000000E-05  9.00000000E-05  9.00000000E-05  9.00000000E-05  9.00000000E-05  9.00000000E-05  9.00000000E-05  9.00000000E-05  9.00000000E-05  9.00000000E-05  9.00000000E-05  9.00000000E-05  9.00000000E-05  9.00000000E-05  9.00000000E-05  9.00000000E-05
    9.00000000E-05  9.00000000E-05  9.00000000E-05  9.00000000E-05  9.00000000E-05  9.00000000E-05  9.00000000E-05  9.00000000E-05  9.00000000E-05  9.00000000E-05  9.00000000E-05  9.00000000E-05  9.00000000E-05  9.00000000E-05  9.00000000E-05  9.00000000E-05  9.00000000E-05  9.00000000E-05  9.00000000E-05  9.00000000E-05
    9.00000000E-05  9.00000000E-05  9.00000000E-05  9.00000000E-05  9.00000000E-05  9.00000000E-05  9.00000000E-05  9.00000000E-05  9.00000000E-05  9.00000000E-05  9.00000000E-05  9.00000000E-05  9.00000000E-05  9.00000000E-05  9.00000000E-05  9.00000000E-05  9.00000000E-05  9.00000000E-05  9.00000000E-05  9.00000000E-05
    9.00000000E-05  9.00000000E-05  9.00000000E-05  9.00000000E-05  9.00000000E-05  9.00000000E-05  9.00000000E-05  9.00000000E-05  9.00000000E-05  9.00000000E-05  9.00000000E-05  9.00000000E-05  9.00000000E-05  9.00000000E-05  9.00000000E-05  9.00000000E-05  9.00000000E-05  9.00000000E-05  9.00000000E-05  9.00000000E-05
    9.00000000E-05  9.00000000E-05  9.00000000E-05  9.00000000E-05  9.00000000E-05  9.00000000E-05  9.00000000E-05  9.00000000E-05  9.00000000E-05  9.00000000E-05  9.00000000E-05  9.00000000E-05  9.00000000E-05  9.00000000E-05  9.00000000E-05  9.00000000E-05  9.00000000E-05  9.00000000E-05  9.00000000E-05  9.00000000E-05
    9.00000000E-05  9.00000000E-05  9.00000000E-05  9.00000000E-05  9.00000000E-05  9.00000000E-05  9.00000000E-05  9.00000000E-05  9.00000000E-05  9.00000000E-05  9.00000000E-05  9.00000000E-05  9.00000000E-05  9.00000000E-05  9.00000000E-05  9.00000000E-05  9.00000000E-05  9.00000000E-05  9.00000000E-05  9.00000000E-05
    9.00000000E-05  9.00000000E-05  9.00000000E-05  9.00000000E-05  9.00000000E-05  9.00000000E-05  9.00000000E-05  9.00000000E-05  9.00000000E-05  9.00000000E-05  9.00000000E-05  9.00000000E-05  9.00000000E-05  9.00000000E-05  9.00000000E-05  9.00000000E-05  9.00000000E-05  9.00000000E-05  9.00000000E-05  9.00000000E-05
    9.00000000E-05  9.00000000E-05  9.00000000E-05  9.00000000E-05  9.00000000E-05  9.00000000E-05  9.00000000E-05  9.00000000E-05  9.00000000E-05  9.00000000E-05  9.00000000E-05  9.00000000E-05  9.00000000E-05  9.00000000E-05  9.00000000E-05  9.00000000E-05  9.00000000E-05  9.00000000E-05  9.00000000E-05  9.00000000E-05
    9.00000000E-05  9.00000000E-05  9.00000000E-05  9.00000000E-05  9.00000000E-05  9.00000000E-05  9.00000000E-05  9.00000000E-05  9.00000000E-05  9.00000000E-05  9.00000000E-05  9.00000000E-05  9.00000000E-05  9.00000000E-05  9.00000000E-05  9.00000000E-05  9.00000000E-05  9.00000000E-05  9.00000000E-05  9.00000000E-05
    9.00000000E-05  9.00000000E-05  9.00000000E-05  9.00000000E-05  9.00000000E-05  9.00000000E-05  9.00000000E-05  9.00000000E-05  9.00000000E-05  9.00000000E-05  9.00000000E-05  9.00000000E-05  9.00000000E-05  9.00000000E-05  9.00000000E-05  9.00000000E-05  9.00000000E-05  9.00000000E-05  9.00000000E-05  9.00000000E-05
    9.00000000E-05  9.00000000E-05  9.00000000E-05  9.00000000E-05  9.00000000E-05  9.00000000E-05  9.00000000E-05  9.00000000E-05  9.00000000E-05  9.00000000E-05  9.00000000E-05  9.00000000E-05  9.00000000E-05  9.00000000E-05  9.00000000E-05  9.00000000E-05  9.00000000E-05  9.00000000E-05  9.00000000E-05  9.00000000E-05
    9.00000000E-05  9.00000000E-05  9.00000000E-05  9.00000000E-05  9.00000000E-05  9.00000000E-05  9.00000000E-05  9.00000000E-05  9.00000000E-05  9.00000000E-05  9.00000000E-05  9.00000000E-05  9.00000000E-05  9.00000000E-05  9.00000000E-05  9.00000000E-05  9.00000000E-05  9.00000000E-05  9.00000000E-05  9.00000000E-05
    9.00000000E-05  9.00000000E-05  9.00000000E-05  9.00000000E-05  9.00000000E-05  9.00000000E-05  9.00000000E-05  9.00000000E-05  9.00000000E-05  9.00000000E-05  9.00000000E-05  9.00000000E-05  9.00000000E-05  9.00000000E-05  9.00000000E-05  9.00000000E-05  9.00000000E-05  9.00000000E-05  9.00000000E-05  9.00000000E-05
    9.00000000E-05  9.00000000E-05  9.00000000E-05  9.00000000E-05  9.00000000E-05  9.00000000E-05  9.00000000E-05  9.00000000E-05  9.00000000E-05  9.00000000E-05  9.00000000E-05  9.00000000E-05  9.00000000E-05  9.00000000E-05  9.00000000E-05  9.00000000E-05  9.00000000E-05  9.00000000E-05  9.00000000E-05  9.00000000E-05
    9.00000000E-05  9.00000000E-05  9.00000000E-05  9.00000000E-05  9.00000000E-05  9.00000000E-05  9.00000000E-05  9.00000000E-05  9.00000000E-05  9.00000000E-05  9.00000000E-05  9.00000000E-05  9.00000000E-05  9.00000000E-05  9.00000000E-05  9.00000000E-05  9.00000000E-05  9.00000000E-05  9.00000000E-05  9.00000000E-05
    9.00000000E-05  9.00000000E-05  9.00000000E-05  9.00000000E-05  9.00000000E-05  9.00000000E-05  9.00000000E-05  9.00000000E-05  9.00000000E-05  9.00000000E-05  9.00000000E-05  9.00000000E-05  9.00000000E-05  9.00000000E-05  9.00000000E-05  9.00000000E-05  9.00000000E-05  9.00000000E-05  9.00000000E-05  9.00000000E-05
    9.00000000E-05  9.00000000E-05  9.00000000E-05  9.00000000E-05  9.00000000E-05  9.00000000E-05  9.00000000E-05  9.00000000E-05  9.00000000E-05  9.00000000E-05  9.00000000E-05  9.00000000E-05  9.00000000E-05  9.00000000E-05  9.00000000E-05  9.00000000E-05  9.00000000E-05  9.00000000E-05  9.00000000E-05  9.00000000E-05
    9.00000000E-05  9.00000000E-05  9.00000000E-05  9.00000000E-05  9.00000000E-05  9.00000000E-05  9.00000000E-05  9.00000000E-05  9.00000000E-05  9.00000000E-05  9.00000000E-05  9.00000000E-05  9.00000000E-05  9.00000000E-05  9.00000000E-05  9.00000000E-05  9.00000000E-05  9.00000000E-05  9.00000000E-05  9.00000000E-05
    9.00000000E-05  9.00000000E-05  9.00000000E-05  9.00000000E-05  9.00000000E-05  9.00000000E-05  9.00000000E-05  9.00000000E-05  9.00000000E-05  9.00000000E-05  9.00000000E-05  9.00000000E-05  9.00000000E-05  9.00000000E-05  9.00000000E-05  9.00000000E-05  9.00000000E-05  9.00000000E-05  9.00000000E-05  9.00000000E-05
    9.00000000E-05  9.00000000E-05  9.00000000E-05  9.00000000E-05  9.00000000E-05  9.00000000E-05  9.00000000E-05  9.00000000E-05  9.00000000E-05  9.00000000E-05  9.00000000E-05  9.00000000E-05  9.00000000E-05  9.00000000E-05  9.00000000E-05  9.00000000E-05  9.00000000E-05  9.00000000E-05  9.00000000E-05  9.00000000E-05
    9.00000000E-05  9.00000000E-05  9.00000000E-05  9.00000000E-05  9.00000000E-05  9.00000000E-05  9.00000000E-05  9.00000000E-05  9.00000000E-05  9.00000000E-05  9.00000000E-05  9.00000000E-05  9.00000000E-05  9.00000000E-05  9.00000000E-05  9.00000000E-05  9.00000000E-05  9.00000000E-05  9.00000000E-05  9.00000000E-05
    9.00000000E-05  9.00000000E-05  9.00000000E-05  9.00000000E-05  9.00000000E-05  9.00000000E-05  9.00000000E-05  9.00000000E-05  9.00000000E-05  9.00000000E-05  9.00000000E-05  9.00000000E-05  9.00000000E-05  9.00000000E-05  9.00000000E-05  9.00000000E-05  9.00000000E-05  9.00000000E-05  9.00000000E-05  9.00000000E-05
    9.00000000E-05  9.00000000E-05  9.00000000E-05  9.00000000E-05  9.00000000E-05  9.00000000E-05  9.00000000E-05  9.00000000E-05  9.00000000E-05  9.00000000E-05  9.00000000E-05  9.00000000E-05  9.00000000E-05  9.00000000E-05  9.00000000E-05  9.00000000E-05  9.00000000E-05  9.00000000E-05  9.00000000E-05  9.00000000E-05
    9.00000000E-05  9.00000000E-05  9.00000000E-05  9.00000000E-05  9.00000000E-05  9.00000000E-05  9.00000000E-05  9.00000000E-05  9.00000000E-05  9.00000000E-05  9.00000000E-05  9.00000000E-05  9.00000000E-05  9.00000000E-05  9.00000000E-05  9.00000000E-05  9.00000000E-05  9.00000000E-05  9.00000000E-05  9.00000000E-05
    9.00000000E-05  9.00000000E-05  9.00000000E-05  9.00000000E-05  9.00000000E-05  9.00000000E-05  9.00000000E-05  9.00000000E-05  9.00000000E-05  9.00000000E-05  9.00000000E-05  9.00000000E-05  9.00000000E-05  9.00000000E-05  9.00000000E-05  9.00000000E-05  9.00000000E-05  9.00000000E-05  9.00000000E-05  9.00000000E-05
    9.00000000E-05  9.00000000E-05  9.00000000E-05  9.00000000E-05  9.00000000E-05  9.00000000E-05  9.00000000E-05  9.00000000E-05  9.00000000E-05  9.00000000E-05  9.00000000E-05  9.00000000E-05  9.00000000E-05  9.00000000E-05  9.00000000E-05  9.00000000E-05  9.00000000E-05  9.00000000E-05  9.00000000E-05  9.00000000E-05
    9.00000000E-05  9.00000000E-05  9.00000000E-05  9.00000000E-05  9.00000000E-05  9.00000000E-05  9.00000000E-05  9.00000000E-05  9.00000000E-05  9.00000000E-05  9.00000000E-05  9.00000000E-05  9.00000000E-05  9.00000000E-05  9.00000000E-05  9.00000000E-05  9.00000000E-05  9.00000000E-05  9.00000000E-05  9.00000000E-05
    9.00000000E-05  9.00000000E-05  9.00000000E-05  9.00000000E-05  9.00000000E-05  9.00000000E-05  9.00000000E-05  9.00000000E-05  9.00000000E-05  9.00000000E-05  9.00000000E-05  9.00000000E-05  9.00000000E-05  9.00000000E-05  9.00000000E-05  9.00000000E-05  9.00000000E-05  9.00000000E-05  9.00000000E-05  9.00000000E-05
    9.00000000E-05  9.00000000E-05  9.00000000E-05  9.00000000E-05  9.00000000E-05  9.00000000E-05  9.00000000E-05  9.00000000E-05  9.00000000E-05  9.00000000E-05  9.00000000E-05  9.00000000E-05  9.00000000E-05  9.00000000E-05  9.00000000E-05  9.00000000E-05  9.00000000E-05  9.00000000E-05  9.00000000E-05  9.00000000E-05
    9.00000000E-05  9.00000000E-05  9.00000000E-05  9.00000000E-05  9.00000000E-05  9.00000000E-05  9.00000000E-05  9.00000000E-05  9.00000000E-05  9.00000000E-05  9.00000000E-05  9.00000000E-05  9.00000000E-05  9.00000000E-05  9.00000000E-05  9.00000000E-05  9.00000000E-05  9.00000000E-05  9.00000000E-05  9.00000000E-05
    9.00000000E-05  9.00000000E-05  9.00000000E-05  9.00000000E-05  9.00000000E-05  9.00000000E-05  9.00000000E-05  9.00000000E-05  9.00000000E-05  9.00000000E-05  9.00000000E-05  9.00000000E-05  9.00000000E-05  9.00000000E-05  9.00000000E-05  9.00000000E-05  9.00000000E-05  9.00000000E-05  9.00000000E-05  9.00000000E-05
    9.00000000E-05  9.00000000E-05  9.00000000E-05  9.00000000E-05  9.00000000E-05  9.00000000E-05  9.00000000E-05  9.00000000E-05  9.00000000E-05  9.00000000E-05  9.00000000E-05  9.00000000E-05  9.00000000E-05  9.00000000E-05  9.00000000E-05  9.00000000E-05  9.00000000E-05  9.00000000E-05  9.00000000E-05  9.00000000E-05
    9.00000000E-05  9.00000000E-05  9.00000000E-05  9.00000000E-05  9.00000000E-05  9.00000000E-05  9.00000000E-05  9.00000000E-05  9.00000000E-05  9.00000000E-05  9.00000000E-05  9.00000000E-05  9.00000000E-05  9.00000000E-05  9.00000000E-05  9.00000000E-05  9.00000000E-05  9.00000000E-05  9.00000000E-05  9.00000000E-05
    9.00000000E-05  9.00000000E-05  9.00000000E-05  9.00000000E-05  9.00000000E-05  9.00000000E-05  9.00000000E-05  9.00000000E-05  9.00000000E-05  9.00000000E-05  9.00000000E-05  9.00000000E-05  9.00000000E-05  9.00000000E-05  9.00000000E-05  9.00000000E-05  9.00000000E-05  9.00000000E-05  9.00000000E-05  9.00000000E-05
    9.00000000E-05  9.00000000E-05  9.00000000E-05  9.00000000E-05  9.00000000E-05  9.00000000E-05  9.00000000E-05  9.00000000E-05  9.00000000E-05  9.00000000E-05  9.00000000E-05  9.00000000E-05  9.00000000E-05  9.00000000E-05  9.00000000E-05  9.00000000E-05  9.00000000E-05  9.00000000E-05  9.00000000E-05  9.00000000E-05
    9.00000000E-05  9.00000000E-05  9.00000000E-05  9.00000000E-05  9.00000000E-05  9.00000000E-05  9.00000000E-05  9.00000000E-05  9.00000000E-05  9.00000000E-05  9.00000000E-05  9.00000000E-05  9.00000000E-05  9.00000000E-05  9.00000000E-05  9.00000000E-05  9.00000000E-05  9.00000000E-05  9.00000000E-05  9.00000000E-05
    9.00000000E-05  9.00000000E-05  9.00000000E-05  9.00000000E-05  9.00000000E-05  9.00000000E-05  9.00000000E-05  9.00000000E-05  9.00000000E-05  9.00000000E-05  9.00000000E-05  9.00000000E-05  9.00000000E-05  9.00000000E-05  9.00000000E-05  9.00000000E-05  9.00000000E-05  9.00000000E-05  9.00000000E-05  9.00000000E-05
    9.00000000E-05  9.00000000E-05  9.00000000E-05  9.00000000E-05  9.00000000E-05  9.00000000E-05  9.00000000E-05  9.00000000E-05  9.00000000E-05  9.00000000E-05  9.00000000E-05  9.00000000E-05  9.00000000E-05  9.00000000E-05  9.00000000E-05  9.00000000E-05  9.00000000E-05  9.00000000E-05  9.00000000E-05  9.00000000E-05
    9.00000000E-05  9.00000000E-05  9.00000000E-05  9.00000000E-05  9.00000000E-05  9.00000000E-05  9.00000000E-05  9.00000000E-05  9.00000000E-05  9.00000000E-05  9.00000000E-05  9.00000000E-05  9.00000000E-05  9.00000000E-05  9.00000000E-05  9.00000000E-05  9.00000000E-05  9.00000000E-05  9.00000000E-05  9.00000000E-05
    9.00000000E-05  9.00000000E-05  9.00000000E-05  9.00000000E-05  9.00000000E-05  9.00000000E-05  9.00000000E-05  9.00000000E-05  9.00000000E-05  9.00000000E-05  9.00000000E-05  9.00000000E-05  9.00000000E-05  9.00000000E-05  9.00000000E-05  9.00000000E-05  9.00000000E-05  9.00000000E-05  9.00000000E-05  9.00000000E-05
    9.00000000E-05  9.00000000E-05  9.00000000E-05  9.00000000E-05  9.00000000E-05  9.00000000E-05  9.00000000E-05  9.00000000E-05  9.00000000E-05  9.00000000E-05  9.00000000E-05  9.00000000E-05  9.00000000E-05  9.00000000E-05  9.00000000E-05  9.00000000E-05  9.00000000E-05  9.00000000E-05  9.00000000E-05  9.00000000E-05
    9.00000000E-05  9.00000000E-05  9.00000000E-05  9.00000000E-05  9.00000000E-05  9.00000000E-05  9.00000000E-05  9.00000000E-05  9.00000000E-05  9.00000000E-05  9.00000000E-05  9.00000000E-05  9.00000000E-05  9.00000000E-05  9.00000000E-05  9.00000000E-05  9.00000000E-05  9.00000000E-05  9.00000000E-05  9.00000000E-05
    9.00000000E-05  9.00000000E-05  9.00000000E-05  9.00000000E-05  9.00000000E-05  9.00000000E-05  9.00000000E-05  9.00000000E-05  9.00000000E-05  9.00000000E-05  9.00000000E-05  9.00000000E-05  9.00000000E-05  9.00000000E-05  9.00000000E-05  9.00000000E-05  9.00000000E-05  9.00000000E-05  9.00000000E-05  9.00000000E-05
    9.00000000E-05  9.00000000E-05  9.00000000E-05  9.00000000E-05  9.00000000E-05  9.00000000E-05  9.00000000E-05  9.00000000E-05  9.00000000E-05  9.00000000E-05  9.00000000E-05  9.00000000E-05  9.00000000E-05  9.00000000E-05  9.00000000E-05  9.00000000E-05  9.00000000E-05  9.00000000E-05  9.00000000E-05  9.00000000E-05
    9.00000000E-05  9.00000000E-05  9.00000000E-05  9.00000000E-05  9.00000000E-05  9.00000000E-05  9.00000000E-05  9.00000000E-05  9.00000000E-05  9.00000000E-05  9.00000000E-05  9.00000000E-05  9.00000000E-05  9.00000000E-05  9.00000000E-05  9.00000000E-05  9.00000000E-05  9.00000000E-05  9.00000000E-05  9.00000000E-05
    9.00000000E-05  9.00000000E-05  9.00000000E-05  9.00000000E-05  9.00000000E-05  9.00000000E-05  9.00000000E-05  9.00000000E-05  9.00000000E-05  9.00000000E-05  9.00000000E-05  9.00000000E-05  9.00000000E-05  9.00000000E-05  9.00000000E-05  9.00000000E-05  9.00000000E-05  9.00000000E-05  9.00000000E-05  9.00000000E-05
    9.00000000E-05  9.00000000E-05  9.00000000E-05  9.00000000E-05  9.00000000E-05  9.00000000E-05  9.00000000E-05  9.00000000E-05  9.00000000E-05  9.00000000E-05  9.00000000E-05  9.00000000E-05  9.00000000E-05  9.00000000E-05  9.00000000E-05  9.00000000E-05  9.00000000E-05  9.00000000E-05  9.00000000E-05  9.00000000E-05
    9.00000000E-05  9.00000000E-05  9.00000000E-05  9.00000000E-05  9.00000000E-05  9.00000000E-05  9.00000000E-05  9.00000000E-05  9.00000000E-05  9.00000000E-05  9.00000000E-05  9.00000000E-05  9.00000000E-05  9.00000000E-05  9.00000000E-05  9.00000000E-05  9.00000000E-05  9.00000000E-05  9.00000000E-05  9.00000000E-05
    9.00000000E-05  9.00000000E-05  9.00000000E-05  9.00000000E-05  9.00000000E-05  9.00000000E-05  9.00000000E-05  9.00000000E-05  9.00000000E-05  9.00000000E-05  9.00000000E-05  9.00000000E-05  9.00000000E-05  9.00000000E-05  9.00000000E-05  9.00000000E-05  9.00000000E-05  9.00000000E-05  9.00000000E-05  9.00000000E-05
    9.00000000E-05  9.00000000E-05  9.00000000E-05  9.00000000E-05  9.00000000E-05  9.00000000E-05  9.00000000E-05  9.00000000E-05  9.00000000E-05  9.00000000E-05  9.00000000E-05  9.00000000E-05  9.00000000E-05  9.00000000E-05  9.00000000E-05  9.00000000E-05  9.00000000E-05  9.00000000E-05  9.00000000E-05  9.00000000E-05
    9.00000000E-05  9.00000000E-05  9.00000000E-05  9.00000000E-05  9.00000000E-05  9.00000000E-05  9.00000000E-05  9.00000000E-05  9.00000000E-05  9.00000000E-05  9.00000000E-05  9.00000000E-05  9.00000000E-05  9.00000000E-05  9.00000000E-05  9.00000000E-05  9.00000000E-05  9.00000000E-05  9.00000000E-05  9.00000000E-05
    9.00000000E-05  9.00000000E-05  9.00000000E-05  9.00000000E-05  9.00000000E-05  9.00000000E-05  9.00000000E-05  9.00000000E-05  9.00000000E-05  9.00000000E-05  9.00000000E-05  9.00000000E-05  9.00000000E-05  9.00000000E-05  9.00000000E-05  9.00000000E-05  9.00000000E-05  9.00000000E-05  9.00000000E-05  9.00000000E-05
    9.00000000E-05  9.00000000E-05  9.00000000E-05  9.00000000E-05  9.00000000E-05  9.00000000E-05  9.00000000E-05  9.00000000E-05  9.00000000E-05  9.00000000E-05  9.00000000E-05  9.00000000E-05  9.00000000E-05  9.00000000E-05  9.00000000E-05  9.00000000E-05  9.00000000E-05  9.00000000E-05  9.00000000E-05  9.00000000E-05
    9.00000000E-05  9.00000000E-05  9.00000000E-05  9.00000000E-05  9.00000000E-05  9.00000000E-05  9.00000000E-05  9.00000000E-05  9.00000000E-05  9.00000000E-05  9.00000000E-05  9.00000000E-05  9.00000000E-05  9.00000000E-05  9.00000000E-05  9.00000000E-05  9.00000000E-05  9.00000000E-05  9.00000000E-05  9.00000000E-05
    9.00000000E-05  9.00000000E-05  9.00000000E-05  9.00000000E-05  9.00000000E-05  9.00000000E-05  9.00000000E-05  9.00000000E-05  9.00000000E-05  9.00000000E-05  9.00000000E-05  9.00000000E-05  9.00000000E-05  9.00000000E-05  9.00000000E-05  9.00000000E-05  9.00000000E-05  9.00000000E-05  9.00000000E-05  9.00000000E-05
    9.00000000E-05  9.00000000E-05  9.00000000E-05  9.00000000E-05  9.00000000E-05  9.00000000E-05  9.00000000E-05  9.00000000E-05  9.00000000E-05  9.00000000E-05  9.00000000E-05  9.00000000E-05  9.00000000E-05  9.00000000E-05  9.00000000E-05  9.00000000E-05  9.00000000E-05  9.00000000E-05  9.00000000E-05  9.00000000E-05
    9.00000000E-05  9.00000000E-05  9.00000000E-05  9.00000000E-05  9.00000000E-05  9.00000000E-05  9.00000000E-05  9.00000000E-05  9.00000000E-05  9.00000000E-05  9.00000000E-05  9.00000000E-05  9.00000000E-05  9.00000000E-05  9.00000000E-05  9.00000000E-05  9.00000000E-05  9.00000000E-05  9.00000000E-05  9.00000000E-05
    9.00000000E-05  9.00000000E-05  9.00000000E-05  9.00000000E-05  9.00000000E-05  9.00000000E-05  9.00000000E-05  9.00000000E-05  9.00000000E-05  9.00000000E-05  9.00000000E-05  9.00000000E-05  9.00000000E-05  9.00000000E-05  9.00000000E-05  9.00000000E-05  9.00000000E-05  9.00000000E-05  9.00000000E-05  9.00000000E-05
    9.00000000E-05  9.00000000E-05  9.00000000E-05  9.00000000E-05  9.00000000E-05  9.00000000E-05  9.00000000E-05  9.00000000E-05  9.00000000E-05  9.00000000E-05  9.00000000E-05  9.00000000E-05  9.00000000E-05  9.00000000E-05  9.00000000E-05  9.00000000E-05  9.00000000E-05  9.00000000E-05  9.00000000E-05  9.00000000E-05
    9.00000000E-05  9.00000000E-05  9.00000000E-05  9.00000000E-05  9.00000000E-05  9.00000000E-05  9.00000000E-05  9.00000000E-05  9.00000000E-05  9.00000000E-05  9.00000000E-05  9.00000000E-05  9.00000000E-05  9.00000000E-05  9.00000000E-05  9.00000000E-05  9.00000000E-05  9.00000000E-05  9.00000000E-05  9.00000000E-05
    9.00000000E-05  9.00000000E-05  9.00000000E-05  9.00000000E-05  9.00000000E-05  9.00000000E-05  9.00000000E-05  9.00000000E-05  9.00000000E-05  9.00000000E-05  9.00000000E-05  9.00000000E-05  9.00000000E-05  9.00000000E-05  9.00000000E-05  9.00000000E-05  9.00000000E-05  9.00000000E-05  9.00000000E-05  9.00000000E-05
    9.00000000E-05  9.00000000E-05  9.00000000E-05  9.00000000E-05  9.00000000E-05  9.00000000E-05  9.00000000E-05  9.00000000E-05  9.00000000E-05  9.00000000E-05  9.00000000E-05  9.00000000E-05  9.00000000E-05  9.00000000E-05  9.00000000E-05  9.00000000E-05  9.00000000E-05  9.00000000E-05  9.00000000E-05  9.00000000E-05
    9.00000000E-05  9.00000000E-05  9.00000000E-05  9.00000000E-05  9.00000000E-05  9.00000000E-05  9.00000000E-05  9.00000000E-05  9.00000000E-05  9.00000000E-05  9.00000000E-05  9.00000000E-05  9.00000000E-05  9.00000000E-05  9.00000000E-05  9.00000000E-05  9.00000000E-05  9.00000000E-05  9.00000000E-05  9.00000000E-05
    9.00000000E-05  9.00000000E-05  9.00000000E-05  9.00000000E-05  9.00000000E-05  9.00000000E-05  9.00000000E-05  9.00000000E-05  9.00000000E-05  9.00000000E-05  9.00000000E-05  9.00000000E-05  9.00000000E-05  9.00000000E-05  9.00000000E-05  9.00000000E-05  9.00000000E-05  9.00000000E-05  9.00000000E-05  9.00000000E-05
    9.00000000E-05  9.00000000E-05  9.00000000E-05  9.00000000E-05  9.00000000E-05  9.00000000E-05  9.00000000E-05  9.00000000E-05  9.00000000E-05  9.00000000E-05  9.00000000E-05  9.00000000E-05  9.00000000E-05  9.00000000E-05  9.00000000E-05  9.00000000E-05  9.00000000E-05  9.00000000E-05  9.00000000E-05  9.00000000E-05
    9.00000000E-05  9.00000000E-05  9.00000000E-05  9.00000000E-05  9.00000000E-05  9.00000000E-05  9.00000000E-05  9.00000000E-05  9.00000000E-05  9.00000000E-05  9.00000000E-05  9.00000000E-05  9.00000000E-05  9.00000000E-05  9.00000000E-05  9.00000000E-05  9.00000000E-05  9.00000000E-05  9.00000000E-05  9.00000000E-05
    9.00000000E-05  9.00000000E-05  9.00000000E-05  9.00000000E-05  9.00000000E-05  9.00000000E-05  9.00000000E-05  9.00000000E-05  9.00000000E-05  9.00000000E-05  9.00000000E-05  9.00000000E-05  9.00000000E-05  9.00000000E-05  9.00000000E-05  9.00000000E-05  9.00000000E-05  9.00000000E-05  9.00000000E-05  9.00000000E-05
    9.00000000E-05  9.00000000E-05  9.00000000E-05  9.00000000E-05  9.00000000E-05  9.00000000E-05  9.00000000E-05  9.00000000E-05  9.00000000E-05  9.00000000E-05  9.00000000E-05  9.00000000E-05  9.00000000E-05  9.00000000E-05  9.00000000E-05  9.00000000E-05  9.00000000E-05  9.00000000E-05  9.00000000E-05  9.00000000E-05
    9.00000000E-05  9.00000000E-05  9.00000000E-05  9.00000000E-05  9.00000000E-05  9.00000000E-05  9.00000000E-05  9.00000000E-05  9.00000000E-05  9.00000000E-05  9.00000000E-05  9.00000000E-05  9.00000000E-05  9.00000000E-05  9.00000000E-05  9.00000000E-05  9.00000000E-05  9.00000000E-05  9.00000000E-05  9.00000000E-05
    9.00000000E-05  9.00000000E-05  9.00000000E-05  9.00000000E-05  9.00000000E-05  9.00000000E-05  9.00000000E-05  9.00000000E-05  9.00000000E-05  9.00000000E-05  9.00000000E-05  9.00000000E-05  9.00000000E-05  9.00000000E-05  9.00000000E-05  9.00000000E-05  9.00000000E-05  9.00000000E-05  9.00000000E-05  9.00000000E-05
    9.00000000E-05  9.00000000E-05  9.00000000E-05  9.00000000E-05  9.00000000E-05  9.00000000E-05  9.00000000E-05  9.00000000E-05  9.00000000E-05  9.00000000E-05  9.00000000E-05  9.00000000E-05  9.00000000E-05  9.00000000E-05  9.00000000E-05  9.00000000E-05  9.00000000E-05  9.00000000E-05  9.00000000E-05  9.00000000E-05
    9.00000000E-05  9.00000000E-05  9.00000000E-05  9.00000000E-05  9.00000000E-05  9.00000000E-05  9.00000000E-05  9.00000000E-05  9.00000000E-05  9.00000000E-05  9.00000000E-05  9.00000000E-05  9.00000000E-05  9.00000000E-05  9.00000000E-05  9.00000000E-05  9.00000000E-05  9.00000000E-05  9.00000000E-05  9.00000000E-05
    9.00000000E-05  9.00000000E-05  9.00000000E-05  9.00000000E-05  9.00000000E-05  9.00000000E-05  9.00000000E-05  9.00000000E-05  9.00000000E-05  9.00000000E-05  9.00000000E-05  9.00000000E-05  9.00000000E-05  9.00000000E-05  9.00000000E-05  9.00000000E-05  9.00000000E-05  9.00000000E-05  9.00000000E-05  9.00000000E-05
    9.00000000E-05  9.00000000E-05  9.00000000E-05  9.00000000E-05  9.00000000E-05  9.00000000E-05  9.00000000E-05  9.00000000E-05  9.00000000E-05  9.00000000E-05  9.00000000E-05  9.00000000E-05  9.00000000E-05  9.00000000E-05  9.00000000E-05  9.00000000E-05  9.00000000E-05  9.00000000E-05  9.00000000E-05  9.00000000E-05
    9.00000000E-05  9.00000000E-05  9.00000000E-05  9.00000000E-05  9.00000000E-05  9.00000000E-05  9.00000000E-05  9.00000000E-05  9.00000000E-05  9.00000000E-05  9.00000000E-05  9.00000000E-05  9.00000000E-05  9.00000000E-05  9.00000000E-05  9.00000000E-05  9.00000000E-05  9.00000000E-05  9.00000000E-05  9.00000000E-05
    9.00000000E-05  9.00000000E-05  9.00000000E-05  9.00000000E-05  9.00000000E-05  9.00000000E-05  9.00000000E-05  9.00000000E-05  9.00000000E-05  9.00000000E-05  9.00000000E-05  9.00000000E-05  9.00000000E-05  9.00000000E-05  9.00000000E-05  9.00000000E-05  9.00000000E-05  9.00000000E-05  9.00000000E-05  9.00000000E-05