# File generated by Flopy version 3.4.1 on 09/08/2024 at 22:08:03.
BEGIN options
  BUDGET  FILEOUT  ref.bud
  HEAD  FILEOUT  ref.hds
END options

BEGIN period  1
  SAVE  HEAD  LAST
  SAVE  BUDGET  ALL
END period  1

