# File generated by Flopy version 3.4.1 on 09/08/2024 at 22:08:03.
BEGIN options
END options

BEGIN dimensions
  MAXBOUND  564
END dimensions

BEGIN period  1
  1     -19.75000000
  1647     -19.25000000
  3293     -17.30000000
  4500     -13.90000000
  5707     -11.69000000
  7258     -10.67000000
  8809     -10.12000000
  10455     -10.04000000
  160     -19.75000000
  1806     -19.25000000
  3391     -17.34000000
  4598     -14.02000000
  5841     -11.84000000
  7392     -10.80000000
  8968     -10.21000000
  10614     -10.07000000
  159     -19.75000000
  1805     -19.25000000
  3390     -17.37000000
  4597     -14.11000000
  5840     -11.97000000
  7391     -10.95000000
  8967     -10.33000000
  10613     -10.11000000
  158     -19.75000000
  1804     -19.25000000
  3389     -17.40000000
  4596     -14.20000000
  5839     -12.08000000
  7390     -11.04000000
  8966     -10.39000000
  10612     -10.13000000
  157     -19.75000000
  1803     -19.25000000
  3388     -17.42000000
  4595     -14.26000000
  5838     -12.17000000
  7389     -11.15000000
  8965     -10.48000000
  10611     -10.16000000
  156     -19.75000000
  1802     -19.25000000
  3387     -17.45000000
  4594     -14.35000000
  5837     -12.28000000
  7388     -11.24000000
  8964     -10.54000000
  10610     -10.18000000
  155     -19.75000000
  1801     -19.25000000
  3386     -17.48000000
  4593     -14.44000000
  5836     -12.40000000
  7387     -11.36000000
  8963     -10.63000000
  10609     -10.21000000
  154     -19.75000000
  1800     -19.25000000
  3385     -17.51000000
  4592     -14.53000000
  5835     -12.53000000
  7386     -11.51000000
  8962     -10.75000000
  10608     -10.25000000
  153     -19.75000000
  1799     -19.25000000
  3384     -17.55000000
  4591     -14.65000000
  5834     -12.68000000
  7385     -11.64000000
  8961     -10.84000000
  10607     -10.28000000
  152     -19.75000000
  1798     -19.25000000
  3383     -17.58000000
  4590     -14.74000000
  5833     -12.81000000
  7384     -11.79000000
  8960     -10.96000000
  10606     -10.32000000
  151     -19.75000000
  1797     -19.25000000
  3382     -17.62000000
  4589     -14.86000000
  5832     -12.97000000
  7383     -11.95000000
  8959     -11.08000000
  10605     -10.36000000
  150     -19.75000000
  1796     -19.25000000
  3381     -17.66000000
  4588     -14.98000000
  5831     -13.13000000
  7382     -12.11000000
  8958     -11.20000000
  10604     -10.40000000
  149     -19.75000000
  1795     -19.25000000
  3380     -17.70000000
  4587     -15.10000000
  5830     -13.29000000
  7381     -12.27000000
  8957     -11.32000000
  10603     -10.44000000
  148     -19.75000000
  1794     -19.25000000
  3379     -17.74000000
  4586     -15.22000000
  5829     -13.45000000
  7380     -12.43000000
  8956     -11.44000000
  10602     -10.48000000
  147     -19.75000000
  1793     -19.25000000
  3378     -17.79000000
  4585     -15.37000000
  5828     -13.64000000
  7379     -12.60000000
  8955     -11.56000000
  10601     -10.52000000
  577     -19.75000000
  2223     -19.25000000
  3747     -17.81000000
  4954     -15.43000000
  6235     -13.72000000
  7786     -12.68000000
  9385     -11.62000000
  11031     -10.54000000
  146     -19.75000000
  1792     -19.25000000
  3377     -17.83000000
  4584     -15.49000000
  5827     -13.80000000
  7378     -12.76000000
  8954     -11.68000000
  10600     -10.56000000
  145     -19.75000000
  1791     -19.25000000
  3376     -17.87000000
  4583     -15.61000000
  5826     -13.97000000
  7377     -12.95000000
  8953     -11.83000000
  10599     -10.61000000
  144     -19.75000000
  1790     -19.25000000
  3375     -17.91000000
  4582     -15.73000000
  5825     -14.13000000
  7376     -13.11000000
  8952     -11.95000000
  10598     -10.65000000
  143     -19.75000000
  1789     -19.25000000
  3374     -17.95000000
  4581     -15.85000000
  5824     -14.29000000
  7375     -13.27000000
  8951     -12.07000000
  10597     -10.69000000
  142     -19.75000000
  1788     -19.25000000
  3373     -17.99000000
  4580     -15.97000000
  5823     -14.45000000
  7374     -13.43000000
  8950     -12.19000000
  10596     -10.73000000
  565     -19.75000000
  2211     -19.25000000
  3738     -18.01000000
  4945     -16.03000000
  6223     -14.52000000
  7774     -13.48000000
  9373     -12.22000000
  11019     -10.74000000
  141     -19.75000000
  1787     -19.25000000
  3372     -18.03000000
  4579     -16.09000000
  5822     -14.60000000
  7373     -13.56000000
  8949     -12.28000000
  10595     -10.76000000
  570     -19.75000000
  2216     -19.25000000
  3743     -18.05000000
  4950     -16.15000000
  6228     -14.68000000
  7779     -13.64000000
  9378     -12.34000000
  11024     -10.78000000
  140     -19.75000000
  1786     -19.25000000
  3371     -18.06000000
  4578     -16.18000000
  5821     -14.73000000
  7372     -13.71000000
  8948     -12.40000000
  10594     -10.80000000
  139     -19.75000000
  1785     -19.25000000
  3370     -18.10000000
  4577     -16.30000000
  5820     -14.89000000
  7371     -13.87000000
  8947     -12.52000000
  10593     -10.84000000
  138     -19.75000000
  1784     -19.25000000
  3369     -18.14000000
  4576     -16.42000000
  5819     -15.05000000
  7370     -14.03000000
  8946     -12.64000000
  10592     -10.88000000
  137     -19.75000000
  1783     -19.25000000
  3368     -18.17000000
  4575     -16.51000000
  5818     -15.17000000
  7369     -14.15000000
  8945     -12.73000000
  10591     -10.91000000
  136     -19.75000000
  1782     -19.25000000
  3367     -18.21000000
  4574     -16.63000000
  5817     -15.33000000
  7368     -14.31000000
  8944     -12.85000000
  10590     -10.95000000
  572     -19.75000000
  2218     -19.25000000
  3744     -18.23000000
  4951     -16.69000000
  6230     -15.41000000
  7781     -14.39000000
  9380     -12.91000000
  11026     -10.97000000
  135     -19.75000000
  1781     -19.25000000
  3366     -18.25000000
  4573     -16.75000000
  5816     -15.48000000
  7367     -14.44000000
  8943     -12.94000000
  10589     -10.98000000
  134     -19.75000000
  1780     -19.25000000
  3365     -18.28000000
  4572     -16.84000000
  5815     -15.61000000
  7366     -14.59000000
  8942     -13.06000000
  10588     -11.02000000
  133     -19.75000000
  1779     -19.25000000
  3364     -18.32000000
  4571     -16.96000000
  5814     -15.76000000
  7365     -14.72000000
  8941     -13.15000000
  10587     -11.05000000
  132     -19.75000000
  1778     -19.25000000
  3363     -18.35000000
  4570     -17.05000000
  5813     -15.89000000
  7364     -14.87000000
  8940     -13.27000000
  10586     -11.09000000
  131     -19.75000000
  1777     -19.25000000
  3362     -18.38000000
  4569     -17.14000000
  5812     -16.01000000
  7363     -14.99000000
  8939     -13.36000000
  10585     -11.12000000
  130     -19.75000000
  1776     -19.25000000
  3361     -18.42000000
  4568     -17.26000000
  5811     -16.17000000
  7362     -15.15000000
  8938     -13.48000000
  10584     -11.16000000
  129     -19.75000000
  1775     -19.25000000
  3360     -18.45000000
  4567     -17.35000000
  5810     -16.29000000
  7361     -15.27000000
  8937     -13.57000000
  10583     -11.19000000
  128     -19.75000000
  1774     -19.25000000
  3359     -18.48000000
  4566     -17.44000000
  5809     -16.41000000
  7360     -15.39000000
  8936     -13.66000000
  10582     -11.22000000
  127     -19.75000000
  1773     -19.25000000
  3358     -18.52000000
  4565     -17.56000000
  5808     -16.56000000
  7359     -15.52000000
  8935     -13.75000000
  10581     -11.25000000
  126     -19.75000000
  1772     -19.25000000
  3357     -18.55000000
  4564     -17.65000000
  5807     -16.69000000
  7358     -15.67000000
  8934     -13.87000000
  10580     -11.29000000
  125     -19.75000000
  1771     -19.25000000
  3356     -18.58000000
  4563     -17.74000000
  5806     -16.81000000
  7357     -15.79000000
  8933     -13.96000000
  10579     -11.32000000
  124     -19.75000000
  1770     -19.25000000
  3355     -18.61000000
  4562     -17.83000000
  5805     -16.93000000
  7356     -15.91000000
  8932     -14.05000000
  10578     -11.35000000
  123     -19.75000000
  1769     -19.25000000
  3354     -18.65000000
  4561     -17.95000000
  5804     -17.08000000
  7355     -16.04000000
  8931     -14.14000000
  10577     -11.38000000
  122     -19.75000000
  1768     -19.25000000
  3353     -18.68000000
  4560     -18.04000000
  5803     -17.21000000
  7354     -16.19000000
  8930     -14.26000000
  10576     -11.42000000
  121     -19.75000000
  1767     -19.25000000
  3352     -18.71000000
  4559     -18.13000000
  5802     -17.33000000
  7353     -16.31000000
  8929     -14.35000000
  10575     -11.45000000
  1687     -49.25000000
  3333     -48.71000000
  4540     -48.13000000
  5747     -47.33000000
  7298     -46.31000000
  8849     -44.35000000
  10495     -41.45000000
  1688     -49.25000000
  3334     -48.74000000
  4541     -48.22000000
  5748     -47.45000000
  7299     -46.43000000
  8850     -44.44000000
  10496     -41.48000000
  1689     -49.25000000
  3335     -48.77000000
  4542     -48.31000000
  5749     -47.57000000
  7300     -46.55000000
  8851     -44.53000000
  10497     -41.51000000
  1690     -49.25000000
  3336     -48.80000000
  4543     -48.40000000
  5750     -47.69000000
  7301     -46.67000000
  8852     -44.62000000
  10498     -41.54000000
  1691     -49.25000000
  3337     -48.83000000
  4544     -48.49000000
  5751     -47.81000000
  7302     -46.79000000
  8853     -44.71000000
  10499     -41.57000000
  1692     -49.25000000
  3338     -48.86000000
  4545     -48.58000000
  5752     -47.93000000
  7303     -46.91000000
  8854     -44.80000000
  10500     -41.60000000
  1693     -49.25000000
  3339     -48.89000000
  4546     -48.67000000
  5753     -48.05000000
  7304     -47.03000000
  8855     -44.89000000
  10501     -41.63000000
  1694     -49.25000000
  3340     -48.92000000
  4547     -48.76000000
  5754     -48.17000000
  7305     -47.15000000
  8856     -44.98000000
  10502     -41.66000000
  1695     -49.25000000
  3341     -48.95000000
  4548     -48.85000000
  5755     -48.29000000
  7306     -47.27000000
  8857     -45.07000000
  10503     -41.69000000
  1696     -49.25000000
  3342     -48.98000000
  4549     -48.94000000
  5756     -48.41000000
  7307     -47.39000000
  8858     -45.16000000
  10504     -41.72000000
  1697     -49.25000000
  5757     -48.50000000
  7308     -47.50000000
  8859     -45.25000000
  10505     -41.75000000
  1698     -49.25000000
  5758     -48.52000000
  7309     -47.56000000
  8860     -45.31000000
  10506     -41.77000000
  1699     -49.25000000
  5759     -48.55000000
  7310     -47.65000000
  8861     -45.40000000
  10507     -41.80000000
  1700     -49.25000000
  5760     -48.58000000
  7311     -47.74000000
  8862     -45.49000000
  10508     -41.83000000
  1701     -49.25000000
  5761     -48.61000000
  7312     -47.83000000
  8863     -45.58000000
  10509     -41.86000000
  1702     -49.25000000
  5762     -48.64000000
  7313     -47.92000000
  8864     -45.67000000
  10510     -41.89000000
  1703     -49.25000000
  5763     -48.67000000
  7314     -48.01000000
  8865     -45.76000000
  10511     -41.92000000
  1704     -49.25000000
  5764     -48.69000000
  7315     -48.07000000
  8866     -45.82000000
  10512     -41.94000000
  1705     -49.25000000
  5765     -48.72000000
  7316     -48.16000000
  8867     -45.91000000
  10513     -41.97000000
  1706     -49.25000000
  5766     -48.75000000
  7317     -48.25000000
  8868     -46.00000000
  10514     -42.00000000
  1707     -49.25000000
  5767     -48.78000000
  7318     -48.34000000
  8869     -46.09000000
  10515     -42.03000000
  1708     -49.25000000
  5768     -48.81000000
  7319     -48.43000000
  8870     -46.18000000
  10516     -42.06000000
  1709     -49.25000000
  5769     -48.83000000
  7320     -48.49000000
  8871     -46.24000000
  10517     -42.08000000
  1710     -49.25000000
  5770     -48.86000000
  7321     -48.58000000
  8872     -46.33000000
  10518     -42.11000000
  1711     -49.25000000
  5771     -48.89000000
  7322     -48.67000000
  8873     -46.42000000
  10519     -42.14000000
  1712     -49.25000000
  5772     -48.92000000
  7323     -48.76000000
  8874     -46.51000000
  10520     -42.17000000
  2233     -49.25000000
  6243     -48.93000000
  7794     -48.79000000
  9395     -46.54000000
  11041     -42.18000000
  1713     -49.25000000
  5773     -48.95000000
  7324     -48.85000000
  8875     -46.60000000
  10521     -42.20000000
  1714     -49.25000000
  5774     -48.97000000
  7325     -48.91000000
  8876     -46.66000000
  10522     -42.22000000
  1715     -49.25000000
  8877     -46.75000000
  10523     -42.25000000
  1716     -49.25000000
  8878     -46.75000000
  10524     -42.25000000
  1717     -49.25000000
  8879     -46.75000000
  10525     -42.25000000
  1718     -49.25000000
  8880     -46.75000000
  10526     -42.25000000
  1719     -49.25000000
  8881     -46.75000000
  10527     -42.25000000
  1720     -49.25000000
  8882     -46.75000000
  10528     -42.25000000
  1721     -49.25000000
  8883     -46.75000000
  10529     -42.25000000
  1722     -49.25000000
  8884     -46.75000000
  10530     -42.25000000
  1723     -49.25000000
  8885     -46.75000000
  10531     -42.25000000
  1724     -49.25000000
  8886     -46.75000000
  10532     -42.25000000
  1725     -49.25000000
  8887     -46.75000000
  10533     -42.25000000
  1726     -49.25000000
  8888     -46.75000000
  10534     -42.25000000
  1727     -49.25000000
  8889     -46.75000000
  10535     -42.25000000
END period  1

