# File generated by Flopy version 3.4.1 on 07/22/2024 at 08:56:21.
BEGIN options
END options

BEGIN dimensions
  MAXBOUND  1280
END dimensions

BEGIN period  1
  1       0.00109589
  2       0.00109589
  3       0.00109589
  4       0.00109589
  5       0.00109589
  6       0.00109589
  7       0.00109589
  8       0.00109589
  9       0.00109589
  10       0.00109589
  11       0.00109589
  12       0.00109589
  13       0.00109589
  14       0.00109589
  15       0.00109589
  16       0.00109589
  17       0.00109589
  18       0.00109589
  19       0.00109589
  20       0.00109589
  21       0.00109589
  22       0.00109589
  23       0.00109589
  24       0.00109589
  25       0.00109589
  26       0.00109589
  27       0.00109589
  28       0.00109589
  29       0.00109589
  30       0.00109589
  31       0.00109589
  32       0.00109589
  33       0.00109589
  34       0.00109589
  35       0.00109589
  36       0.00109589
  37       0.00109589
  38       0.00109589
  39       0.00109589
  40       0.00109589
  41       0.00109589
  42       0.00109589
  43       0.00109589
  44       0.00109589
  45       0.00109589
  46       0.00109589
  47       0.00109589
  48       0.00109589
  49       0.00109589
  50       0.00109589
  51       0.00109589
  52       0.00109589
  53       0.00109589
  54       0.00109589
  55       0.00109589
  56       0.00109589
  57       0.00109589
  58       0.00109589
  59       0.00109589
  60       0.00109589
  61       0.00109589
  62       0.00109589
  63       0.00109589
  64       0.00109589
  65       0.00109589
  66       0.00109589
  67       0.00109589
  68       0.00109589
  69       0.00109589
  70       0.00109589
  71       0.00109589
  72       0.00109589
  73       0.00109589
  74       0.00109589
  75       0.00109589
  76       0.00109589
  77       0.00109589
  78       0.00109589
  79       0.00109589
  80       0.00109589
  81       0.00109589
  82       0.00109589
  83       0.00109589
  84       0.00109589
  85       0.00109589
  86       0.00109589
  87       0.00109589
  88       0.00109589
  89       0.00109589
  90       0.00109589
  91       0.00109589
  92       0.00109589
  93       0.00109589
  94       0.00109589
  95       0.00109589
  96       0.00109589
  97       0.00109589
  98       0.00109589
  99       0.00109589
  100       0.00109589
  101       0.00109589
  102       0.00109589
  103       0.00109589
  104       0.00109589
  105       0.00109589
  106       0.00109589
  107       0.00109589
  108       0.00109589
  109       0.00109589
  110       0.00109589
  111       0.00109589
  112       0.00109589
  113       0.00109589
  114       0.00109589
  115       0.00109589
  116       0.00109589
  117       0.00109589
  118       0.00109589
  119       0.00109589
  120       0.00109589
  121       0.00109589
  122       0.00109589
  123       0.00109589
  124       0.00109589
  125       0.00109589
  126       0.00109589
  127       0.00109589
  128       0.00109589
  129       0.00109589
  130       0.00109589
  131       0.00109589
  132       0.00109589
  133       0.00109589
  134       0.00109589
  135       0.00109589
  136       0.00109589
  137       0.00109589
  138       0.00109589
  139       0.00109589
  140       0.00109589
  141       0.00109589
  142       0.00109589
  143       0.00109589
  144       0.00109589
  145       0.00109589
  146       0.00109589
  147       0.00109589
  148       0.00109589
  149       0.00109589
  150       0.00109589
  151       0.00109589
  152       0.00109589
  153       0.00109589
  154       0.00109589
  155       0.00109589
  156       0.00109589
  157       0.00109589
  158       0.00109589
  159       0.00109589
  160       0.00109589
  161       0.00109589
  162       0.00109589
  163       0.00109589
  164       0.00109589
  165       0.00109589
  166       0.00109589
  167       0.00109589
  168       0.00109589
  169       0.00109589
  170       0.00109589
  171       0.00109589
  172       0.00109589
  173       0.00109589
  174       0.00109589
  175       0.00109589
  176       0.00109589
  177       0.00109589
  178       0.00109589
  179       0.00109589
  180       0.00109589
  181       0.00109589
  182       0.00109589
  183       0.00109589
  184       0.00109589
  185       0.00109589
  186       0.00109589
  187       0.00109589
  188       0.00109589
  189       0.00109589
  190       0.00109589
  191       0.00109589
  192       0.00109589
  193       0.00109589
  194       0.00109589
  195       0.00109589
  196       0.00109589
  197       0.00109589
  198       0.00109589
  199       0.00109589
  200       0.00109589
  201       0.00109589
  202       0.00109589
  203       0.00109589
  204       0.00109589
  205       0.00109589
  206       0.00109589
  207       0.00109589
  208       0.00109589
  209       0.00109589
  210       0.00109589
  211       0.00109589
  212       0.00109589
  213       0.00109589
  214       0.00109589
  215       0.00109589
  216       0.00109589
  217       0.00109589
  218       0.00109589
  219       0.00109589
  220       0.00109589
  221       0.00109589
  222       0.00109589
  223       0.00109589
  224       0.00109589
  225       0.00109589
  226       0.00109589
  227       0.00109589
  228       0.00109589
  229       0.00109589
  230       0.00109589
  231       0.00109589
  232       0.00109589
  233       0.00109589
  234       0.00109589
  235       0.00109589
  236       0.00109589
  237       0.00109589
  238       0.00109589
  239       0.00109589
  240       0.00109589
  241       0.00109589
  242       0.00109589
  243       0.00109589
  244       0.00109589
  245       0.00109589
  246       0.00109589
  247       0.00109589
  248       0.00109589
  249       0.00109589
  250       0.00109589
  251       0.00109589
  252       0.00109589
  253       0.00109589
  254       0.00109589
  255       0.00109589
  256       0.00109589
  257       0.00109589
  258       0.00109589
  259       0.00109589
  260       0.00109589
  261       0.00109589
  262       0.00109589
  263       0.00109589
  264       0.00109589
  265       0.00109589
  266       0.00109589
  267       0.00109589
  268       0.00109589
  269       0.00109589
  270       0.00109589
  271       0.00109589
  272       0.00109589
  273       0.00109589
  274       0.00109589
  275       0.00109589
  276       0.00109589
  277       0.00109589
  278       0.00109589
  279       0.00109589
  280       0.00109589
  281       0.00109589
  282       0.00109589
  283       0.00109589
  284       0.00109589
  285       0.00109589
  286       0.00109589
  287       0.00109589
  288       0.00109589
  289       0.00109589
  290       0.00109589
  291       0.00109589
  292       0.00109589
  293       0.00109589
  294       0.00109589
  295       0.00109589
  296       0.00109589
  297       0.00109589
  298       0.00109589
  299       0.00109589
  300       0.00109589
  301       0.00109589
  302       0.00109589
  303       0.00109589
  304       0.00109589
  305       0.00109589
  306       0.00109589
  307       0.00109589
  308       0.00109589
  309       0.00109589
  310       0.00109589
  311       0.00109589
  312       0.00109589
  313       0.00109589
  314       0.00109589
  315       0.00109589
  316       0.00109589
  317       0.00109589
  318       0.00109589
  319       0.00109589
  320       0.00109589
  321       0.00109589
  322       0.00109589
  323       0.00109589
  324       0.00109589
  325       0.00109589
  326       0.00109589
  327       0.00109589
  328       0.00109589
  329       0.00109589
  330       0.00109589
  331       0.00109589
  332       0.00109589
  333       0.00109589
  334       0.00109589
  335       0.00109589
  336       0.00109589
  337       0.00109589
  338       0.00109589
  339       0.00109589
  340       0.00109589
  341       0.00109589
  342       0.00109589
  343       0.00109589
  344       0.00109589
  345       0.00109589
  346       0.00109589
  347       0.00109589
  348       0.00109589
  349       0.00109589
  350       0.00109589
  351       0.00109589
  352       0.00109589
  353       0.00109589
  354       0.00109589
  355       0.00109589
  356       0.00109589
  357       0.00109589
  358       0.00109589
  359       0.00109589
  360       0.00109589
  361       0.00109589
  362       0.00109589
  363       0.00109589
  364       0.00109589
  365       0.00109589
  366       0.00109589
  367       0.00109589
  368       0.00109589
  369       0.00109589
  370       0.00109589
  371       0.00109589
  372       0.00109589
  373       0.00109589
  374       0.00109589
  375       0.00109589
  376       0.00109589
  377       0.00109589
  378       0.00109589
  379       0.00109589
  380       0.00109589
  381       0.00109589
  382       0.00109589
  383       0.00109589
  384       0.00109589
  385       0.00109589
  386       0.00109589
  387       0.00109589
  388       0.00109589
  389       0.00109589
  390       0.00109589
  391       0.00109589
  392       0.00109589
  393       0.00109589
  394       0.00109589
  395       0.00109589
  396       0.00109589
  397       0.00109589
  398       0.00109589
  399       0.00109589
  400       0.00109589
  401       0.00109589
  402       0.00109589
  403       0.00109589
  404       0.00109589
  405       0.00109589
  406       0.00109589
  407       0.00109589
  408       0.00109589
  409       0.00109589
  410       0.00109589
  411       0.00109589
  412       0.00109589
  413       0.00109589
  414       0.00109589
  415       0.00109589
  416       0.00109589
  417       0.00109589
  418       0.00109589
  419       0.00109589
  420       0.00109589
  421       0.00109589
  422       0.00109589
  423       0.00109589
  424       0.00109589
  425       0.00109589
  426       0.00109589
  427       0.00109589
  428       0.00109589
  429       0.00109589
  430       0.00109589
  431       0.00109589
  432       0.00109589
  433       0.00109589
  434       0.00109589
  435       0.00109589
  436       0.00109589
  437       0.00109589
  438       0.00109589
  439       0.00109589
  440       0.00109589
  441       0.00109589
  442       0.00109589
  443       0.00109589
  444       0.00109589
  445       0.00109589
  446       0.00109589
  447       0.00109589
  448       0.00109589
  449       0.00109589
  450       0.00109589
  451       0.00109589
  452       0.00109589
  453       0.00109589
  454       0.00109589
  455       0.00109589
  456       0.00109589
  457       0.00109589
  458       0.00109589
  459       0.00109589
  460       0.00109589
  461       0.00109589
  462       0.00109589
  463       0.00109589
  464       0.00109589
  465       0.00109589
  466       0.00109589
  467       0.00109589
  468       0.00109589
  469       0.00109589
  470       0.00109589
  471       0.00109589
  472       0.00109589
  473       0.00109589
  474       0.00109589
  475       0.00109589
  476       0.00109589
  477       0.00109589
  478       0.00109589
  479       0.00109589
  480       0.00109589
  481       0.00109589
  482       0.00109589
  483       0.00109589
  484       0.00109589
  485       0.00109589
  486       0.00109589
  487       0.00109589
  488       0.00109589
  489       0.00109589
  490       0.00109589
  491       0.00109589
  492       0.00109589
  493       0.00109589
  494       0.00109589
  495       0.00109589
  496       0.00109589
  497       0.00109589
  498       0.00109589
  499       0.00109589
  500       0.00109589
  501       0.00109589
  502       0.00109589
  503       0.00109589
  504       0.00109589
  505       0.00109589
  506       0.00109589
  507       0.00109589
  508       0.00109589
  509       0.00109589
  510       0.00109589
  511       0.00109589
  512       0.00109589
  513       0.00109589
  514       0.00109589
  515       0.00109589
  516       0.00109589
  517       0.00109589
  518       0.00109589
  519       0.00109589
  520       0.00109589
  521       0.00109589
  522       0.00109589
  523       0.00109589
  524       0.00109589
  525       0.00109589
  526       0.00109589
  527       0.00109589
  528       0.00109589
  529       0.00109589
  530       0.00109589
  531       0.00109589
  532       0.00109589
  533       0.00109589
  534       0.00109589
  535       0.00109589
  536       0.00109589
  537       0.00109589
  538       0.00109589
  539       0.00109589
  540       0.00109589
  541       0.00109589
  542       0.00109589
  543       0.00109589
  544       0.00109589
  545       0.00109589
  546       0.00109589
  547       0.00109589
  548       0.00109589
  549       0.00109589
  550       0.00109589
  551       0.00109589
  552       0.00109589
  553       0.00109589
  554       0.00109589
  555       0.00109589
  556       0.00109589
  557       0.00109589
  558       0.00109589
  559       0.00109589
  560       0.00109589
  561       0.00109589
  562       0.00109589
  563       0.00109589
  564       0.00109589
  565       0.00109589
  566       0.00109589
  567       0.00109589
  568       0.00109589
  569       0.00109589
  570       0.00109589
  571       0.00109589
  572       0.00109589
  573       0.00109589
  574       0.00109589
  575       0.00109589
  576       0.00109589
  577       0.00109589
  578       0.00109589
  579       0.00109589
  580       0.00109589
  581       0.00109589
  582       0.00109589
  583       0.00109589
  584       0.00109589
  585       0.00109589
  586       0.00109589
  587       0.00109589
  588       0.00109589
  589       0.00109589
  590       0.00109589
  591       0.00109589
  592       0.00109589
  593       0.00109589
  594       0.00109589
  595       0.00109589
  596       0.00109589
  597       0.00109589
  598       0.00109589
  599       0.00109589
  600       0.00109589
  601       0.00109589
  602       0.00109589
  603       0.00109589
  604       0.00109589
  605       0.00109589
  606       0.00109589
  607       0.00109589
  608       0.00109589
  609       0.00109589
  610       0.00109589
  611       0.00109589
  612       0.00109589
  613       0.00109589
  614       0.00109589
  615       0.00109589
  616       0.00109589
  617       0.00109589
  618       0.00109589
  619       0.00109589
  620       0.00109589
  621       0.00109589
  622       0.00109589
  623       0.00109589
  624       0.00109589
  625       0.00109589
  626       0.00109589
  627       0.00109589
  628       0.00109589
  629       0.00109589
  630       0.00109589
  631       0.00109589
  632       0.00109589
  633       0.00109589
  634       0.00109589
  635       0.00109589
  636       0.00109589
  637       0.00109589
  638       0.00109589
  639       0.00109589
  640       0.00109589
  641       0.00109589
  642       0.00109589
  643       0.00109589
  644       0.00109589
  645       0.00109589
  646       0.00109589
  647       0.00109589
  648       0.00109589
  649       0.00109589
  650       0.00109589
  651       0.00109589
  652       0.00109589
  653       0.00109589
  654       0.00109589
  655       0.00109589
  656       0.00109589
  657       0.00109589
  658       0.00109589
  659       0.00109589
  660       0.00109589
  661       0.00109589
  662       0.00109589
  663       0.00109589
  664       0.00109589
  665       0.00109589
  666       0.00109589
  667       0.00109589
  668       0.00109589
  669       0.00109589
  670       0.00109589
  671       0.00109589
  672       0.00109589
  673       0.00109589
  674       0.00109589
  675       0.00109589
  676       0.00109589
  677       0.00109589
  678       0.00109589
  679       0.00109589
  680       0.00109589
  681       0.00109589
  682       0.00109589
  683       0.00109589
  684       0.00109589
  685       0.00109589
  686       0.00109589
  687       0.00109589
  688       0.00109589
  689       0.00109589
  690       0.00109589
  691       0.00109589
  692       0.00109589
  693       0.00109589
  694       0.00109589
  695       0.00109589
  696       0.00109589
  697       0.00109589
  698       0.00109589
  699       0.00109589
  700       0.00109589
  701       0.00109589
  702       0.00109589
  703       0.00109589
  704       0.00109589
  705       0.00109589
  706       0.00109589
  707       0.00109589
  708       0.00109589
  709       0.00109589
  710       0.00109589
  711       0.00109589
  712       0.00109589
  713       0.00109589
  714       0.00109589
  715       0.00109589
  716       0.00109589
  717       0.00109589
  718       0.00109589
  719       0.00109589
  720       0.00109589
  721       0.00109589
  722       0.00109589
  723       0.00109589
  724       0.00109589
  725       0.00109589
  726       0.00109589
  727       0.00109589
  728       0.00109589
  729       0.00109589
  730       0.00109589
  731       0.00109589
  732       0.00109589
  733       0.00109589
  734       0.00109589
  735       0.00109589
  736       0.00109589
  737       0.00109589
  738       0.00109589
  739       0.00109589
  740       0.00109589
  741       0.00109589
  742       0.00109589
  743       0.00109589
  744       0.00109589
  745       0.00109589
  746       0.00109589
  747       0.00109589
  748       0.00109589
  749       0.00109589
  750       0.00109589
  751       0.00109589
  752       0.00109589
  753       0.00109589
  754       0.00109589
  755       0.00109589
  756       0.00109589
  757       0.00109589
  758       0.00109589
  759       0.00109589
  760       0.00109589
  761       0.00109589
  762       0.00109589
  763       0.00109589
  764       0.00109589
  765       0.00109589
  766       0.00109589
  767       0.00109589
  768       0.00109589
  769       0.00109589
  770       0.00109589
  771       0.00109589
  772       0.00109589
  773       0.00109589
  774       0.00109589
  775       0.00109589
  776       0.00109589
  777       0.00109589
  778       0.00109589
  779       0.00109589
  780       0.00109589
  781       0.00109589
  782       0.00109589
  783       0.00109589
  784       0.00109589
  785       0.00109589
  786       0.00109589
  787       0.00109589
  788       0.00109589
  789       0.00109589
  790       0.00109589
  791       0.00109589
  792       0.00109589
  793       0.00109589
  794       0.00109589
  795       0.00109589
  796       0.00109589
  797       0.00109589
  798       0.00109589
  799       0.00109589
  800       0.00109589
  801       0.00109589
  802       0.00109589
  803       0.00109589
  804       0.00109589
  805       0.00109589
  806       0.00109589
  807       0.00109589
  808       0.00109589
  809       0.00109589
  810       0.00109589
  811       0.00109589
  812       0.00109589
  813       0.00109589
  814       0.00109589
  815       0.00109589
  816       0.00109589
  817       0.00109589
  818       0.00109589
  819       0.00109589
  820       0.00109589
  821       0.00109589
  822       0.00109589
  823       0.00109589
  824       0.00109589
  825       0.00109589
  826       0.00109589
  827       0.00109589
  828       0.00109589
  829       0.00109589
  830       0.00109589
  831       0.00109589
  832       0.00109589
  833       0.00109589
  834       0.00109589
  835       0.00109589
  836       0.00109589
  837       0.00109589
  838       0.00109589
  839       0.00109589
  840       0.00109589
  841       0.00109589
  842       0.00109589
  843       0.00109589
  844       0.00109589
  845       0.00109589
  846       0.00109589
  847       0.00109589
  848       0.00109589
  849       0.00109589
  850       0.00109589
  851       0.00109589
  852       0.00109589
  853       0.00109589
  854       0.00109589
  855       0.00109589
  856       0.00109589
  857       0.00109589
  858       0.00109589
  859       0.00109589
  860       0.00109589
  861       0.00109589
  862       0.00109589
  863       0.00109589
  864       0.00109589
  865       0.00109589
  866       0.00109589
  867       0.00109589
  868       0.00109589
  869       0.00109589
  870       0.00109589
  871       0.00109589
  872       0.00109589
  873       0.00109589
  874       0.00109589
  875       0.00109589
  876       0.00109589
  877       0.00109589
  878       0.00109589
  879       0.00109589
  880       0.00109589
  881       0.00109589
  882       0.00109589
  883       0.00109589
  884       0.00109589
  885       0.00109589
  886       0.00109589
  887       0.00109589
  888       0.00109589
  889       0.00109589
  890       0.00109589
  891       0.00109589
  892       0.00109589
  893       0.00109589
  894       0.00109589
  895       0.00109589
  896       0.00109589
  897       0.00109589
  898       0.00109589
  899       0.00109589
  900       0.00109589
  901       0.00109589
  902       0.00109589
  903       0.00109589
  904       0.00109589
  905       0.00109589
  906       0.00109589
  907       0.00109589
  908       0.00109589
  909       0.00109589
  910       0.00109589
  911       0.00109589
  912       0.00109589
  913       0.00109589
  914       0.00109589
  915       0.00109589
  916       0.00109589
  917       0.00109589
  918       0.00109589
  919       0.00109589
  920       0.00109589
  921       0.00109589
  922       0.00109589
  923       0.00109589
  924       0.00109589
  925       0.00109589
  926       0.00109589
  927       0.00109589
  928       0.00109589
  929       0.00109589
  930       0.00109589
  931       0.00109589
  932       0.00109589
  933       0.00109589
  934       0.00109589
  935       0.00109589
  936       0.00109589
  937       0.00109589
  938       0.00109589
  939       0.00109589
  940       0.00109589
  941       0.00109589
  942       0.00109589
  943       0.00109589
  944       0.00109589
  945       0.00109589
  946       0.00109589
  947       0.00109589
  948       0.00109589
  949       0.00109589
  950       0.00109589
  951       0.00109589
  952       0.00109589
  953       0.00109589
  954       0.00109589
  955       0.00109589
  956       0.00109589
  957       0.00109589
  958       0.00109589
  959       0.00109589
  960       0.00109589
  961       0.00109589
  962       0.00109589
  963       0.00109589
  964       0.00109589
  965       0.00109589
  966       0.00109589
  967       0.00109589
  968       0.00109589
  969       0.00109589
  970       0.00109589
  971       0.00109589
  972       0.00109589
  973       0.00109589
  974       0.00109589
  975       0.00109589
  976       0.00109589
  977       0.00109589
  978       0.00109589
  979       0.00109589
  980       0.00109589
  981       0.00109589
  982       0.00109589
  983       0.00109589
  984       0.00109589
  985       0.00109589
  986       0.00109589
  987       0.00109589
  988       0.00109589
  989       0.00109589
  990       0.00109589
  991       0.00109589
  992       0.00109589
  993       0.00109589
  994       0.00109589
  995       0.00109589
  996       0.00109589
  997       0.00109589
  998       0.00109589
  999       0.00109589
  1000       0.00109589
  1001       0.00109589
  1002       0.00109589
  1003       0.00109589
  1004       0.00109589
  1005       0.00109589
  1006       0.00109589
  1007       0.00109589
  1008       0.00109589
  1009       0.00109589
  1010       0.00109589
  1011       0.00109589
  1012       0.00109589
  1013       0.00109589
  1014       0.00109589
  1015       0.00109589
  1016       0.00109589
  1017       0.00109589
  1018       0.00109589
  1019       0.00109589
  1020       0.00109589
  1021       0.00109589
  1022       0.00109589
  1023       0.00109589
  1024       0.00109589
  1025       0.00109589
  1026       0.00109589
  1027       0.00109589
  1028       0.00109589
  1029       0.00109589
  1030       0.00109589
  1031       0.00109589
  1032       0.00109589
  1033       0.00109589
  1034       0.00109589
  1035       0.00109589
  1036       0.00109589
  1037       0.00109589
  1038       0.00109589
  1039       0.00109589
  1040       0.00109589
  1041       0.00109589
  1042       0.00109589
  1043       0.00109589
  1044       0.00109589
  1045       0.00109589
  1046       0.00109589
  1047       0.00109589
  1048       0.00109589
  1049       0.00109589
  1050       0.00109589
  1051       0.00109589
  1052       0.00109589
  1053       0.00109589
  1054       0.00109589
  1055       0.00109589
  1056       0.00109589
  1057       0.00109589
  1058       0.00109589
  1059       0.00109589
  1060       0.00109589
  1061       0.00109589
  1062       0.00109589
  1063       0.00109589
  1064       0.00109589
  1065       0.00109589
  1066       0.00109589
  1067       0.00109589
  1068       0.00109589
  1069       0.00109589
  1070       0.00109589
  1071       0.00109589
  1072       0.00109589
  1073       0.00109589
  1074       0.00109589
  1075       0.00109589
  1076       0.00109589
  1077       0.00109589
  1078       0.00109589
  1079       0.00109589
  1080       0.00109589
  1081       0.00109589
  1082       0.00109589
  1083       0.00109589
  1084       0.00109589
  1085       0.00109589
  1086       0.00109589
  1087       0.00109589
  1088       0.00109589
  1089       0.00109589
  1090       0.00109589
  1091       0.00109589
  1092       0.00109589
  1093       0.00109589
  1094       0.00109589
  1095       0.00109589
  1096       0.00109589
  1097       0.00109589
  1098       0.00109589
  1099       0.00109589
  1100       0.00109589
  1101       0.00109589
  1102       0.00109589
  1103       0.00109589
  1104       0.00109589
  1105       0.00109589
  1106       0.00109589
  1107       0.00109589
  1108       0.00109589
  1109       0.00109589
  1110       0.00109589
  1111       0.00109589
  1112       0.00109589
  1113       0.00109589
  1114       0.00109589
  1115       0.00109589
  1116       0.00109589
  1117       0.00109589
  1118       0.00109589
  1119       0.00109589
  1120       0.00109589
  1121       0.00109589
  1122       0.00109589
  1123       0.00109589
  1124       0.00109589
  1125       0.00109589
  1126       0.00109589
  1127       0.00109589
  1128       0.00109589
  1129       0.00109589
  1130       0.00109589
  1131       0.00109589
  1132       0.00109589
  1133       0.00109589
  1134       0.00109589
  1135       0.00109589
  1136       0.00109589
  1137       0.00109589
  1138       0.00109589
  1139       0.00109589
  1140       0.00109589
  1141       0.00109589
  1142       0.00109589
  1143       0.00109589
  1144       0.00109589
  1145       0.00109589
  1146       0.00109589
  1147       0.00109589
  1148       0.00109589
  1149       0.00109589
  1150       0.00109589
  1151       0.00109589
  1152       0.00109589
  1153       0.00109589
  1154       0.00109589
  1155       0.00109589
  1156       0.00109589
  1157       0.00109589
  1158       0.00109589
  1159       0.00109589
  1160       0.00109589
  1161       0.00109589
  1162       0.00109589
  1163       0.00109589
  1164       0.00109589
  1165       0.00109589
  1166       0.00109589
  1167       0.00109589
  1168       0.00109589
  1169       0.00109589
  1170       0.00109589
  1171       0.00109589
  1172       0.00109589
  1173       0.00109589
  1174       0.00109589
  1175       0.00109589
  1176       0.00109589
  1177       0.00109589
  1178       0.00109589
  1179       0.00109589
  1180       0.00109589
  1181       0.00109589
  1182       0.00109589
  1183       0.00109589
  1184       0.00109589
  1185       0.00109589
  1186       0.00109589
  1187       0.00109589
  1188       0.00109589
  1189       0.00109589
  1190       0.00109589
  1191       0.00109589
  1192       0.00109589
  1193       0.00109589
  1194       0.00109589
  1195       0.00109589
  1196       0.00109589
  1197       0.00109589
  1198       0.00109589
  1199       0.00109589
  1200       0.00109589
  1201       0.00109589
  1202       0.00109589
  1203       0.00109589
  1204       0.00109589
  1205       0.00109589
  1206       0.00109589
  1207       0.00109589
  1208       0.00109589
  1209       0.00109589
  1210       0.00109589
  1211       0.00109589
  1212       0.00109589
  1213       0.00109589
  1214       0.00109589
  1215       0.00109589
  1216       0.00109589
  1217       0.00109589
  1218       0.00109589
  1219       0.00109589
  1220       0.00109589
  1221       0.00109589
  1222       0.00109589
  1223       0.00109589
  1224       0.00109589
  1225       0.00109589
  1226       0.00109589
  1227       0.00109589
  1228       0.00109589
  1229       0.00109589
  1230       0.00109589
  1231       0.00109589
  1232       0.00109589
  1233       0.00109589
  1234       0.00109589
  1235       0.00109589
  1236       0.00109589
  1237       0.00109589
  1238       0.00109589
  1239       0.00109589
  1240       0.00109589
  1241       0.00109589
  1242       0.00109589
  1243       0.00109589
  1244       0.00109589
  1245       0.00109589
  1246       0.00109589
  1247       0.00109589
  1248       0.00109589
  1249       0.00109589
  1250       0.00109589
  1251       0.00109589
  1252       0.00109589
  1253       0.00109589
  1254       0.00109589
  1255       0.00109589
  1256       0.00109589
  1257       0.00109589
  1258       0.00109589
  1259       0.00109589
  1260       0.00109589
  1261       0.00109589
  1262       0.00109589
  1263       0.00109589
  1264       0.00109589
  1265       0.00109589
  1266       0.00109589
  1267       0.00109589
  1268       0.00109589
  1269       0.00109589
  1270       0.00109589
  1271       0.00109589
  1272       0.00109589
  1273       0.00109589
  1274       0.00109589
  1275       0.00109589
  1276       0.00109589
  1277       0.00109589
  1278       0.00109589
  1279       0.00109589
  1280       0.00109589
END period  1

