# File generated by Flopy version 3.4.1 on 07/22/2024 at 08:56:21.
BEGIN options
END options

BEGIN dimensions
  MAXBOUND  729
END dimensions

BEGIN period  1
  1281     -19.50000000
  2561     -19.16666667
  3841     -17.86666667
  4794     -15.60000000
  5747     -13.33333333
  6700     -11.86000000
  7890     -11.18000000
  9080     -10.50000000
  10270     -10.13333333
  11550     -10.08000000
  12830     -10.02666667
  1440     -19.50000000
  2720     -19.16666667
  3939     -17.89333333
  4892     -15.68000000
  5845     -13.46666667
  6834     -12.01333333
  8024     -11.32000000
  9214     -10.62666667
  10429     -10.23333333
  11709     -10.14000000
  12989     -10.04666667
  1439     -19.50000000
  2719     -19.16666667
  3938     -17.91333333
  4891     -15.74000000
  5844     -13.56666667
  6833     -12.14000000
  8023     -11.46000000
  9213     -10.78000000
  10428     -10.36666667
  11708     -10.22000000
  12988     -10.07333333
  1438     -19.50000000
  2718     -19.16666667
  3937     -17.93333333
  4890     -15.80000000
  5843     -13.66666667
  6832     -12.25333333
  8022     -11.56000000
  9212     -10.86666667
  10427     -10.43333333
  11707     -10.26000000
  12987     -10.08666667
  1437     -19.50000000
  2717     -19.16666667
  3936     -17.94666667
  4889     -15.84000000
  5842     -13.73333333
  6831     -12.34000000
  8021     -11.66000000
  9211     -10.98000000
  10426     -10.53333333
  11706     -10.32000000
  12986     -10.10666667
  1436     -19.50000000
  2716     -19.16666667
  3935     -17.96666667
  4888     -15.90000000
  5841     -13.83333333
  6830     -12.45333333
  8020     -11.76000000
  9210     -11.06666667
  10425     -10.60000000
  11705     -10.36000000
  12985     -10.12000000
  1435     -19.50000000
  2715     -19.16666667
  3934     -17.98666667
  4887     -15.96000000
  5840     -13.93333333
  6829     -12.57333333
  8019     -11.88000000
  9209     -11.18666667
  10424     -10.70000000
  11704     -10.42000000
  12984     -10.14000000
  1434     -19.50000000
  2714     -19.16666667
  3933     -18.00666667
  4886     -16.02000000
  5839     -14.03333333
  6828     -12.70000000
  8018     -12.02000000
  9208     -11.34000000
  10423     -10.83333333
  11703     -10.50000000
  12983     -10.16666667
  1433     -19.50000000
  2713     -19.16666667
  3932     -18.03333333
  4885     -16.10000000
  5838     -14.16666667
  6827     -12.85333333
  8017     -12.16000000
  9207     -11.46666667
  10422     -10.93333333
  11702     -10.56000000
  12982     -10.18666667
  1432     -19.50000000
  2712     -19.16666667
  3931     -18.05333333
  4884     -16.16000000
  5837     -14.26666667
  6826     -12.98000000
  8016     -12.30000000
  9206     -11.62000000
  10421     -11.06666667
  11701     -10.64000000
  12981     -10.21333333
  1431     -19.50000000
  2711     -19.16666667
  3930     -18.08000000
  4883     -16.24000000
  5836     -14.40000000
  6825     -13.14000000
  8015     -12.46000000
  9205     -11.78000000
  10420     -11.20000000
  11700     -10.72000000
  12980     -10.24000000
  1430     -19.50000000
  2710     -19.16666667
  3929     -18.10666667
  4882     -16.32000000
  5835     -14.53333333
  6824     -13.30000000
  8014     -12.62000000
  9204     -11.94000000
  10419     -11.33333333
  11699     -10.80000000
  12979     -10.26666667
  1429     -19.50000000
  2709     -19.16666667
  3928     -18.13333333
  4881     -16.40000000
  5834     -14.66666667
  6823     -13.46000000
  8013     -12.78000000
  9203     -12.10000000
  10418     -11.46666667
  11698     -10.88000000
  12978     -10.29333333
  1428     -19.50000000
  2708     -19.16666667
  3927     -18.16000000
  4880     -16.48000000
  5833     -14.80000000
  6822     -13.62000000
  8012     -12.94000000
  9202     -12.26000000
  10417     -11.60000000
  11697     -10.96000000
  12977     -10.32000000
  1427     -19.50000000
  2707     -19.16666667
  3926     -18.19333333
  4879     -16.58000000
  5832     -14.96666667
  6821     -13.81333333
  8011     -13.12000000
  9201     -12.42666667
  10416     -11.73333333
  11696     -11.04000000
  12976     -10.34666667
  1426     -19.50000000
  2706     -19.16666667
  3925     -18.22000000
  4878     -16.66000000
  5831     -15.10000000
  6820     -13.97333333
  8010     -13.28000000
  9200     -12.58666667
  10415     -11.86666667
  11695     -11.12000000
  12975     -10.37333333
  1425     -19.50000000
  2705     -19.16666667
  3924     -18.24666667
  4877     -16.74000000
  5830     -15.23333333
  6819     -14.14000000
  8009     -13.46000000
  9199     -12.78000000
  10414     -12.03333333
  11694     -11.22000000
  12974     -10.40666667
  1424     -19.50000000
  2704     -19.16666667
  3923     -18.27333333
  4876     -16.82000000
  5829     -15.36666667
  6818     -14.30000000
  8008     -13.62000000
  9198     -12.94000000
  10413     -12.16666667
  11693     -11.30000000
  12973     -10.43333333
  1423     -19.50000000
  2703     -19.16666667
  3922     -18.30000000
  4875     -16.90000000
  5828     -15.50000000
  6817     -14.46000000
  8007     -13.78000000
  9197     -13.10000000
  10412     -12.30000000
  11692     -11.38000000
  12972     -10.46000000
  1422     -19.50000000
  2702     -19.16666667
  3921     -18.32666667
  4874     -16.98000000
  5827     -15.63333333
  6816     -14.62000000
  8006     -13.94000000
  9196     -13.26000000
  10411     -12.43333333
  11691     -11.46000000
  12971     -10.48666667
  1421     -19.50000000
  2701     -19.16666667
  3920     -18.35333333
  4873     -17.06000000
  5826     -15.76666667
  6815     -14.77333333
  8005     -14.08000000
  9195     -13.38666667
  10410     -12.53333333
  11690     -11.52000000
  12970     -10.50666667
  1420     -19.50000000
  2700     -19.16666667
  3919     -18.37333333
  4872     -17.12000000
  5825     -15.86666667
  6814     -14.90000000
  8004     -14.22000000
  9194     -13.54000000
  10409     -12.66666667
  11689     -11.60000000
  12969     -10.53333333
  1419     -19.50000000
  2699     -19.16666667
  3918     -18.40000000
  4871     -17.20000000
  5824     -16.00000000
  6813     -15.06000000
  8003     -14.38000000
  9193     -13.70000000
  10408     -12.80000000
  11688     -11.68000000
  12968     -10.56000000
  1418     -19.50000000
  2698     -19.16666667
  3917     -18.42666667
  4870     -17.28000000
  5823     -16.13333333
  6812     -15.22000000
  8002     -14.54000000
  9192     -13.86000000
  10407     -12.93333333
  11687     -11.76000000
  12967     -10.58666667
  1417     -19.50000000
  2697     -19.16666667
  3916     -18.44666667
  4869     -17.34000000
  5822     -16.23333333
  6811     -15.34000000
  8001     -14.66000000
  9191     -13.98000000
  10406     -13.03333333
  11686     -11.82000000
  12966     -10.60666667
  1416     -19.50000000
  2696     -19.16666667
  3915     -18.47333333
  4868     -17.42000000
  5821     -16.36666667
  6810     -15.50000000
  8000     -14.82000000
  9190     -14.14000000
  10405     -13.16666667
  11685     -11.90000000
  12965     -10.63333333
  1415     -19.50000000
  2695     -19.16666667
  3914     -18.50000000
  4867     -17.50000000
  5820     -16.50000000
  6809     -15.65333333
  7999     -14.96000000
  9189     -14.26666667
  10404     -13.26666667
  11684     -11.96000000
  12964     -10.65333333
  1414     -19.50000000
  2694     -19.16666667
  3913     -18.52000000
  4866     -17.56000000
  5819     -16.60000000
  6808     -15.78000000
  7998     -15.10000000
  9188     -14.42000000
  10403     -13.40000000
  11683     -12.04000000
  12963     -10.68000000
  1413     -19.50000000
  2693     -19.16666667
  3912     -18.54666667
  4865     -17.64000000
  5818     -16.73333333
  6807     -15.93333333
  7997     -15.24000000
  9187     -14.54666667
  10402     -13.50000000
  11682     -12.10000000
  12962     -10.70000000
  1412     -19.50000000
  2692     -19.16666667
  3911     -18.56666667
  4864     -17.70000000
  5817     -16.83333333
  6806     -16.06000000
  7996     -15.38000000
  9186     -14.70000000
  10401     -13.63333333
  11681     -12.18000000
  12961     -10.72666667
  1411     -19.50000000
  2691     -19.16666667
  3910     -18.58666667
  4863     -17.76000000
  5816     -16.93333333
  6805     -16.18000000
  7995     -15.50000000
  9185     -14.82000000
  10400     -13.73333333
  11680     -12.24000000
  12960     -10.74666667
  1410     -19.50000000
  2690     -19.16666667
  3909     -18.61333333
  4862     -17.84000000
  5815     -17.06666667
  6804     -16.34000000
  7994     -15.66000000
  9184     -14.98000000
  10399     -13.86666667
  11679     -12.32000000
  12959     -10.77333333
  1409     -19.50000000
  2689     -19.16666667
  3908     -18.63333333
  4861     -17.90000000
  5814     -17.16666667
  6803     -16.46000000
  7993     -15.78000000
  9183     -15.10000000
  10398     -13.96666667
  11678     -12.38000000
  12958     -10.79333333
  1408     -19.50000000
  2688     -19.16666667
  3907     -18.65333333
  4860     -17.96000000
  5813     -17.26666667
  6802     -16.58000000
  7992     -15.90000000
  9182     -15.22000000
  10397     -14.06666667
  11677     -12.44000000
  12957     -10.81333333
  1407     -19.50000000
  2687     -19.16666667
  3906     -18.68000000
  4859     -18.04000000
  5812     -17.40000000
  6801     -16.73333333
  7991     -16.04000000
  9181     -15.34666667
  10396     -14.16666667
  11676     -12.50000000
  12956     -10.83333333
  1406     -19.50000000
  2686     -19.16666667
  3905     -18.70000000
  4858     -18.10000000
  5811     -17.50000000
  6800     -16.86000000
  7990     -16.18000000
  9180     -15.50000000
  10395     -14.30000000
  11675     -12.58000000
  12955     -10.86000000
  1405     -19.50000000
  2685     -19.16666667
  3904     -18.72000000
  4857     -18.16000000
  5810     -17.60000000
  6799     -16.98000000
  7989     -16.30000000
  9179     -15.62000000
  10394     -14.40000000
  11674     -12.64000000
  12954     -10.88000000
  1404     -19.50000000
  2684     -19.16666667
  3903     -18.74000000
  4856     -18.22000000
  5809     -17.70000000
  6798     -17.10000000
  7988     -16.42000000
  9178     -15.74000000
  10393     -14.50000000
  11673     -12.70000000
  12953     -10.90000000
  1403     -19.50000000
  2683     -19.16666667
  3902     -18.76666667
  4855     -18.30000000
  5808     -17.83333333
  6797     -17.25333333
  7987     -16.56000000
  9177     -15.86666667
  10392     -14.60000000
  11672     -12.76000000
  12952     -10.92000000
  1402     -19.50000000
  2682     -19.16666667
  3901     -18.78666667
  4854     -18.36000000
  5807     -17.93333333
  6796     -17.38000000
  7986     -16.70000000
  9176     -16.02000000
  10391     -14.73333333
  11671     -12.84000000
  12951     -10.94666667
  1401     -19.50000000
  2681     -19.16666667
  3900     -18.80666667
  4853     -18.42000000
  5806     -18.03333333
  6795     -17.50000000
  7985     -16.82000000
  9175     -16.14000000
  10390     -14.83333333
  11670     -12.90000000
  12950     -10.96666667
  2601     -49.16666667
  3881     -48.80666667
  4834     -48.42000000
  5787     -48.03333333
  6740     -47.50000000
  7930     -46.82000000
  9120     -46.14000000
  10310     -44.83333333
  11590     -42.90000000
  12870     -40.96666667
  2602     -49.16666667
  3882     -48.82666667
  4835     -48.48000000
  5788     -48.13333333
  6741     -47.62000000
  7931     -46.94000000
  9121     -46.26000000
  10311     -44.93333333
  11591     -42.96000000
  12871     -40.98666667
  2603     -49.16666667
  3883     -48.84666667
  4836     -48.54000000
  5789     -48.23333333
  6742     -47.74000000
  7932     -47.06000000
  9122     -46.38000000
  10312     -45.03333333
  11592     -43.02000000
  12872     -41.00666667
  2604     -49.16666667
  3884     -48.86666667
  4837     -48.60000000
  5790     -48.33333333
  6743     -47.86000000
  7933     -47.18000000
  9123     -46.50000000
  10313     -45.13333333
  11593     -43.08000000
  12873     -41.02666667
  2605     -49.16666667
  3885     -48.88666667
  4838     -48.66000000
  5791     -48.43333333
  6744     -47.98000000
  7934     -47.30000000
  9124     -46.62000000
  10314     -45.23333333
  11594     -43.14000000
  12874     -41.04666667
  2606     -49.16666667
  3886     -48.90666667
  4839     -48.72000000
  5792     -48.53333333
  6745     -48.10000000
  7935     -47.42000000
  9125     -46.74000000
  10315     -45.33333333
  11595     -43.20000000
  12875     -41.06666667
  2607     -49.16666667
  3887     -48.92666667
  4840     -48.78000000
  5793     -48.63333333
  6746     -48.22000000
  7936     -47.54000000
  9126     -46.86000000
  10316     -45.43333333
  11596     -43.26000000
  12876     -41.08666667
  2608     -49.16666667
  3888     -48.94666667
  4841     -48.84000000
  5794     -48.73333333
  6747     -48.34000000
  7937     -47.66000000
  9127     -46.98000000
  10317     -45.53333333
  11597     -43.32000000
  12877     -41.10666667
  2609     -49.16666667
  3889     -48.96666667
  4842     -48.90000000
  5795     -48.83333333
  6748     -48.46000000
  7938     -47.78000000
  9128     -47.10000000
  10318     -45.63333333
  11598     -43.38000000
  12878     -41.12666667
  2610     -49.16666667
  3890     -48.98666667
  4843     -48.96000000
  5796     -48.93333333
  6749     -48.58000000
  7939     -47.90000000
  9129     -47.22000000
  10319     -45.73333333
  11599     -43.44000000
  12879     -41.14666667
  2611     -49.16666667
  6750     -48.66666667
  7940     -48.00000000
  9130     -47.33333333
  10320     -45.83333333
  11600     -43.50000000
  12880     -41.16666667
  2612     -49.16666667
  6751     -48.68000000
  7941     -48.04000000
  9131     -47.40000000
  10321     -45.90000000
  11601     -43.54000000
  12881     -41.18000000
  2613     -49.16666667
  6752     -48.70000000
  7942     -48.10000000
  9132     -47.50000000
  10322     -46.00000000
  11602     -43.60000000
  12882     -41.20000000
  2614     -49.16666667
  6753     -48.72000000
  7943     -48.16000000
  9133     -47.60000000
  10323     -46.10000000
  11603     -43.66000000
  12883     -41.22000000
  2615     -49.16666667
  6754     -48.74000000
  7944     -48.22000000
  9134     -47.70000000
  10324     -46.20000000
  11604     -43.72000000
  12884     -41.24000000
  2616     -49.16666667
  6755     -48.76000000
  7945     -48.28000000
  9135     -47.80000000
  10325     -46.30000000
  11605     -43.78000000
  12885     -41.26000000
  2617     -49.16666667
  6756     -48.78000000
  7946     -48.34000000
  9136     -47.90000000
  10326     -46.40000000
  11606     -43.84000000
  12886     -41.28000000
  2618     -49.16666667
  6757     -48.79333333
  7947     -48.38000000
  9137     -47.96666667
  10327     -46.46666667
  11607     -43.88000000
  12887     -41.29333333
  2619     -49.16666667
  6758     -48.81333333
  7948     -48.44000000
  9138     -48.06666667
  10328     -46.56666667
  11608     -43.94000000
  12888     -41.31333333
  2620     -49.16666667
  6759     -48.83333333
  7949     -48.50000000
  9139     -48.16666667
  10329     -46.66666667
  11609     -44.00000000
  12889     -41.33333333
  2621     -49.16666667
  6760     -48.85333333
  7950     -48.56000000
  9140     -48.26666667
  10330     -46.76666667
  11610     -44.06000000
  12890     -41.35333333
  2622     -49.16666667
  6761     -48.87333333
  7951     -48.62000000
  9141     -48.36666667
  10331     -46.86666667
  11611     -44.12000000
  12891     -41.37333333
  2623     -49.16666667
  6762     -48.88666667
  7952     -48.66000000
  9142     -48.43333333
  10332     -46.93333333
  11612     -44.16000000
  12892     -41.38666667
  2624     -49.16666667
  6763     -48.90666667
  7953     -48.72000000
  9143     -48.53333333
  10333     -47.03333333
  11613     -44.22000000
  12893     -41.40666667
  2625     -49.16666667
  6764     -48.92666667
  7954     -48.78000000
  9144     -48.63333333
  10334     -47.13333333
  11614     -44.28000000
  12894     -41.42666667
  2626     -49.16666667
  6765     -48.94666667
  7955     -48.84000000
  9145     -48.73333333
  10335     -47.23333333
  11615     -44.34000000
  12895     -41.44666667
  2627     -49.16666667
  6766     -48.96666667
  7956     -48.90000000
  9146     -48.83333333
  10336     -47.33333333
  11616     -44.40000000
  12896     -41.46666667
  2628     -49.16666667
  6767     -48.98000000
  7957     -48.94000000
  9147     -48.90000000
  10337     -47.40000000
  11617     -44.44000000
  12897     -41.48000000
  2629     -49.16666667
  10338     -47.50000000
  11618     -44.50000000
  12898     -41.50000000
  2630     -49.16666667
  10339     -47.50000000
  11619     -44.50000000
  12899     -41.50000000
  2631     -49.16666667
  10340     -47.50000000
  11620     -44.50000000
  12900     -41.50000000
  2632     -49.16666667
  10341     -47.50000000
  11621     -44.50000000
  12901     -41.50000000
  2633     -49.16666667
  10342     -47.50000000
  11622     -44.50000000
  12902     -41.50000000
  2634     -49.16666667
  10343     -47.50000000
  11623     -44.50000000
  12903     -41.50000000
  2635     -49.16666667
  10344     -47.50000000
  11624     -44.50000000
  12904     -41.50000000
  2636     -49.16666667
  10345     -47.50000000
  11625     -44.50000000
  12905     -41.50000000
  2637     -49.16666667
  10346     -47.50000000
  11626     -44.50000000
  12906     -41.50000000
  2638     -49.16666667
  10347     -47.50000000
  11627     -44.50000000
  12907     -41.50000000
  2639     -49.16666667
  10348     -47.50000000
  11628     -44.50000000
  12908     -41.50000000
  2640     -49.16666667
  10349     -47.50000000
  11629     -44.50000000
  12909     -41.50000000
  2641     -49.16666667
  10350     -47.50000000
  11630     -44.50000000
  12910     -41.50000000
END period  1

