# File generated by Flopy version 3.4.1 on 09/12/2024 at 06:51:17.
BEGIN options
  SAVE_FLOWS
  NEWTON  UNDER_RELAXATION
END options

BEGIN packages
  DISU6  run.disu  disu
  NPF6  run.npf  npf
  IC6  run.ic  ic
  STO6  run.sto  sto
  WEL6  run.wel  wel_0
  CHD6  run.chd  chd_0
  RCH6  run.rch  rch_0
  OBS6  run  obs_0
  OC6  run.oc  oc
END packages

