# File generated by Flopy version 3.4.1 on 09/12/2024 at 06:51:20.
BEGIN options
END options

BEGIN dimensions
  MAXBOUND  510
END dimensions

BEGIN period  1
  1     -19.75000000
  1647     -19.25000000
  3293     -17.31000000
  4235     -13.93000000
  5177     -11.71000000
  6375     -10.65000000
  7573     -10.09000000
  9219     -10.03000000
  160     -19.75000000
  1806     -19.25000000
  3373     -17.34000000
  4315     -14.02000000
  5277     -11.83000000
  6475     -10.77000000
  7732     -10.18000000
  9378     -10.06000000
  159     -19.75000000
  1805     -19.25000000
  3372     -17.37000000
  4314     -14.11000000
  5276     -11.95000000
  6474     -10.89000000
  7731     -10.27000000
  9377     -10.09000000
  158     -19.75000000
  1804     -19.25000000
  3371     -17.40000000
  4313     -14.20000000
  5275     -12.07000000
  6473     -11.01000000
  7730     -10.36000000
  9376     -10.12000000
  157     -19.75000000
  1803     -19.25000000
  3370     -17.42000000
  4312     -14.26000000
  5274     -12.15000000
  6472     -11.09000000
  7729     -10.42000000
  9375     -10.14000000
  156     -19.75000000
  1802     -19.25000000
  3369     -17.44000000
  4311     -14.32000000
  5273     -12.23000000
  6471     -11.17000000
  7728     -10.48000000
  9374     -10.16000000
  155     -19.75000000
  1801     -19.25000000
  3368     -17.47000000
  4310     -14.41000000
  5272     -12.35000000
  6470     -11.29000000
  7727     -10.57000000
  9373     -10.19000000
  154     -19.75000000
  1800     -19.25000000
  3367     -17.50000000
  4309     -14.50000000
  5271     -12.46000000
  6469     -11.38000000
  7726     -10.63000000
  9372     -10.21000000
  153     -19.75000000
  1799     -19.25000000
  3366     -17.53000000
  4308     -14.59000000
  5270     -12.58000000
  6468     -11.50000000
  7725     -10.72000000
  9371     -10.24000000
  152     -19.75000000
  1798     -19.25000000
  3365     -17.56000000
  4307     -14.68000000
  5269     -12.70000000
  6467     -11.62000000
  7724     -10.81000000
  9370     -10.27000000
  151     -19.75000000
  1797     -19.25000000
  3364     -17.59000000
  4306     -14.77000000
  5268     -12.82000000
  6466     -11.74000000
  7723     -10.90000000
  9369     -10.30000000
  150     -19.75000000
  1796     -19.25000000
  3363     -17.62000000
  4305     -14.86000000
  5267     -12.95000000
  6465     -11.89000000
  7722     -11.02000000
  9368     -10.34000000
  149     -19.75000000
  1795     -19.25000000
  3362     -17.66000000
  4304     -14.98000000
  5266     -13.10000000
  6464     -12.02000000
  7721     -11.11000000
  9367     -10.37000000
  148     -19.75000000
  1794     -19.25000000
  3361     -17.70000000
  4303     -15.10000000
  5265     -13.26000000
  6463     -12.18000000
  7720     -11.23000000
  9366     -10.41000000
  147     -19.75000000
  1793     -19.25000000
  3360     -17.73000000
  4302     -15.19000000
  5264     -13.39000000
  6462     -12.33000000
  7719     -11.35000000
  9365     -10.45000000
  577     -19.75000000
  2223     -19.25000000
  3710     -17.75000000
  4652     -15.25000000
  5635     -13.47000000
  6833     -12.41000000
  8149     -11.41000000
  9795     -10.47000000
  146     -19.75000000
  1792     -19.25000000
  3359     -17.77000000
  4301     -15.31000000
  5263     -13.54000000
  6461     -12.46000000
  7718     -11.44000000
  9364     -10.48000000
  145     -19.75000000
  1791     -19.25000000
  3358     -17.81000000
  4300     -15.43000000
  5262     -13.70000000
  6460     -12.62000000
  7717     -11.56000000
  9363     -10.52000000
  144     -19.75000000
  1790     -19.25000000
  3357     -17.85000000
  4299     -15.55000000
  5261     -13.86000000
  6459     -12.78000000
  7716     -11.68000000
  9362     -10.56000000
  143     -19.75000000
  1789     -19.25000000
  3356     -17.90000000
  4298     -15.70000000
  5260     -14.06000000
  6458     -12.98000000
  7715     -11.83000000
  9361     -10.61000000
  142     -19.75000000
  1788     -19.25000000
  3355     -17.94000000
  4297     -15.82000000
  5259     -14.22000000
  6457     -13.14000000
  7714     -11.95000000
  9360     -10.65000000
  565     -19.75000000
  2211     -19.25000000
  3701     -17.96000000
  4643     -15.88000000
  5626     -14.30000000
  6824     -13.22000000
  8137     -12.01000000
  9783     -10.67000000
  141     -19.75000000
  1787     -19.25000000
  3354     -17.98000000
  4296     -15.94000000
  5258     -14.38000000
  6456     -13.30000000
  7713     -12.07000000
  9359     -10.69000000
  570     -19.75000000
  2216     -19.25000000
  3706     -18.00000000
  4648     -16.00000000
  5631     -14.46000000
  6829     -13.38000000
  8142     -12.13000000
  9788     -10.71000000
  140     -19.75000000
  1786     -19.25000000
  3353     -18.02000000
  4295     -16.06000000
  5257     -14.54000000
  6455     -13.46000000
  7712     -12.19000000
  9358     -10.73000000
  139     -19.75000000
  1785     -19.25000000
  3352     -18.07000000
  4294     -16.21000000
  5256     -14.74000000
  6454     -13.66000000
  7711     -12.34000000
  9357     -10.78000000
  138     -19.75000000
  1784     -19.25000000
  3351     -18.11000000
  4293     -16.33000000
  5255     -14.90000000
  6453     -13.82000000
  7710     -12.46000000
  9356     -10.82000000
  137     -19.75000000
  1783     -19.25000000
  3350     -18.16000000
  4292     -16.48000000
  5254     -15.10000000
  6452     -14.02000000
  7709     -12.61000000
  9355     -10.87000000
  136     -19.75000000
  1782     -19.25000000
  3349     -18.20000000
  4291     -16.60000000
  5253     -15.26000000
  6451     -14.18000000
  7708     -12.73000000
  9354     -10.91000000
  572     -19.75000000
  2218     -19.25000000
  3707     -18.23000000
  4649     -16.69000000
  5632     -15.38000000
  6830     -14.30000000
  8144     -12.82000000
  9790     -10.94000000
  135     -19.75000000
  1781     -19.25000000
  3348     -18.25000000
  4290     -16.75000000
  5252     -15.46000000
  6450     -14.38000000
  7707     -12.88000000
  9353     -10.96000000
  134     -19.75000000
  1780     -19.25000000
  3347     -18.30000000
  4289     -16.90000000
  5251     -15.66000000
  6449     -14.58000000
  7706     -13.03000000
  9352     -11.01000000
  133     -19.75000000
  1779     -19.25000000
  3346     -18.35000000
  4288     -17.05000000
  5250     -15.85000000
  6448     -14.75000000
  7705     -13.15000000
  9351     -11.05000000
  132     -19.75000000
  1778     -19.25000000
  3345     -18.39000000
  4287     -17.17000000
  5249     -16.02000000
  6447     -14.94000000
  7704     -13.30000000
  9350     -11.10000000
  131     -19.75000000
  1777     -19.25000000
  3344     -18.44000000
  4286     -17.32000000
  5248     -16.22000000
  6446     -15.14000000
  7703     -13.45000000
  9349     -11.15000000
  130     -19.75000000
  1776     -19.25000000
  3343     -18.49000000
  4285     -17.47000000
  5247     -16.42000000
  6445     -15.34000000
  7702     -13.60000000
  9348     -11.20000000
  129     -19.75000000
  1775     -19.25000000
  3342     -18.54000000
  4284     -17.62000000
  5246     -16.62000000
  6444     -15.54000000
  7701     -13.75000000
  9347     -11.25000000
  128     -19.75000000
  1774     -19.25000000
  3341     -18.59000000
  4283     -17.77000000
  5245     -16.82000000
  6443     -15.74000000
  7700     -13.90000000
  9346     -11.30000000
  127     -19.75000000
  1773     -19.25000000
  3340     -18.64000000
  4282     -17.92000000
  5244     -17.02000000
  6442     -15.94000000
  7699     -14.05000000
  9345     -11.35000000
  126     -19.75000000
  1772     -19.25000000
  3339     -18.69000000
  4281     -18.07000000
  5243     -17.22000000
  6441     -16.14000000
  7698     -14.20000000
  9344     -11.40000000
  125     -19.75000000
  1771     -19.25000000
  3338     -18.74000000
  4280     -18.22000000
  5242     -17.42000000
  6440     -16.34000000
  7697     -14.35000000
  9343     -11.45000000
  124     -19.75000000
  1770     -19.25000000
  3337     -18.79000000
  4279     -18.37000000
  5241     -17.62000000
  6439     -16.54000000
  7696     -14.50000000
  9342     -11.50000000
  123     -19.75000000
  1769     -19.25000000
  3336     -18.84000000
  4278     -18.52000000
  5240     -17.82000000
  6438     -16.74000000
  7695     -14.65000000
  9341     -11.55000000
  122     -19.75000000
  1768     -19.25000000
  3335     -18.89000000
  4277     -18.67000000
  5239     -18.02000000
  6437     -16.94000000
  7694     -14.80000000
  9340     -11.60000000
  121     -19.75000000
  1767     -19.25000000
  3334     -18.94000000
  4276     -18.82000000
  5238     -18.22000000
  6436     -17.14000000
  7693     -14.95000000
  9339     -11.65000000
  1687     -49.25000000
  3333     -48.94000000
  4275     -48.82000000
  5217     -48.22000000
  6415     -47.14000000
  7613     -44.95000000
  9259     -41.65000000
  1688     -49.25000000
  5218     -48.45000000
  6416     -47.35000000
  7614     -45.10000000
  9260     -41.70000000
  1689     -49.25000000
  5219     -48.51000000
  6417     -47.53000000
  7615     -45.28000000
  9261     -41.76000000
  1690     -49.25000000
  5220     -48.57000000
  6418     -47.71000000
  7616     -45.46000000
  9262     -41.82000000
  1691     -49.25000000
  5221     -48.63000000
  6419     -47.89000000
  7617     -45.64000000
  9263     -41.88000000
  1692     -49.25000000
  5222     -48.69000000
  6420     -48.07000000
  7618     -45.82000000
  9264     -41.94000000
  1693     -49.25000000
  5223     -48.75000000
  6421     -48.25000000
  7619     -46.00000000
  9265     -42.00000000
  1694     -49.25000000
  5224     -48.81000000
  6422     -48.43000000
  7620     -46.18000000
  9266     -42.06000000
  1695     -49.25000000
  5225     -48.87000000
  6423     -48.61000000
  7621     -46.36000000
  9267     -42.12000000
  1696     -49.25000000
  5226     -48.93000000
  6424     -48.79000000
  7622     -46.54000000
  9268     -42.18000000
  1697     -49.25000000
  5227     -48.99000000
  6425     -48.97000000
  7623     -46.72000000
  9269     -42.24000000
  1698     -49.25000000
  7624     -46.75000000
  9270     -42.25000000
  1699     -49.25000000
  7625     -46.75000000
  9271     -42.25000000
  1700     -49.25000000
  7626     -46.75000000
  9272     -42.25000000
  1701     -49.25000000
  7627     -46.75000000
  9273     -42.25000000
  1702     -49.25000000
  7628     -46.75000000
  9274     -42.25000000
  1703     -49.25000000
  7629     -46.75000000
  9275     -42.25000000
  1704     -49.25000000
  7630     -46.75000000
  9276     -42.25000000
  1705     -49.25000000
  7631     -46.75000000
  9277     -42.25000000
  1706     -49.25000000
  7632     -46.75000000
  9278     -42.25000000
  1707     -49.25000000
  7633     -46.75000000
  9279     -42.25000000
  1708     -49.25000000
  7634     -46.75000000
  9280     -42.25000000
  1709     -49.25000000
  7635     -46.75000000
  9281     -42.25000000
  1710     -49.25000000
  7636     -46.75000000
  9282     -42.25000000
  1711     -49.25000000
  7637     -46.75000000
  9283     -42.25000000
  1712     -49.25000000
  7638     -46.75000000
  9284     -42.25000000
  2233     -49.25000000
  8159     -46.75000000
  9805     -42.25000000
  1713     -49.25000000
  7639     -46.75000000
  9285     -42.25000000
  1714     -49.25000000
  7640     -46.75000000
  9286     -42.25000000
  1715     -49.25000000
  7641     -46.75000000
  9287     -42.25000000
  1716     -49.25000000
  7642     -46.75000000
  9288     -42.25000000
  1717     -49.25000000
  7643     -46.75000000
  9289     -42.25000000
  1718     -49.25000000
  7644     -46.75000000
  9290     -42.25000000
  1719     -49.25000000
  7645     -46.75000000
  9291     -42.25000000
  1720     -49.25000000
  7646     -46.75000000
  9292     -42.25000000
  1721     -49.25000000
  7647     -46.75000000
  9293     -42.25000000
  1722     -49.25000000
  7648     -46.75000000
  9294     -42.25000000
  1723     -49.25000000
  7649     -46.75000000
  9295     -42.25000000
  1724     -49.25000000
  7650     -46.75000000
  9296     -42.25000000
  1725     -49.25000000
  7651     -46.75000000
  9297     -42.25000000
  1726     -49.25000000
  7652     -46.75000000
  9298     -42.25000000
  1727     -49.25000000
  7653     -46.75000000
  9299     -42.25000000
END period  1

