# File generated by Flopy version 3.4.1 on 07/22/2024 at 09:17:48.
BEGIN options
END options

BEGIN griddata
  iconvert
    CONSTANT  1
  ss
    INTERNAL  FACTOR  1.0
    5.00000000E-05  5.00000000E-05  5.00000000E-05  5.00000000E-05  5.00000000E-05  5.00000000E-05  5.00000000E-05  5.00000000E-05  5.00000000E-05  5.00000000E-05  5.00000000E-05  5.00000000E-05  5.00000000E-05  5.00000000E-05  5.00000000E-05  5.00000000E-05  5.00000000E-05  5.00000000E-05  5.00000000E-05  5.00000000E-05
    5.00000000E-05  5.00000000E-05  5.00000000E-05  5.00000000E-05  5.00000000E-05  5.00000000E-05  5.00000000E-05  5.00000000E-05  5.00000000E-05  5.00000000E-05  5.00000000E-05  5.00000000E-05  5.00000000E-05  5.00000000E-05  5.00000000E-05  5.00000000E-05  5.00000000E-05  5.00000000E-05  5.00000000E-05  5.00000000E-05
    5.00000000E-05  5.00000000E-05  5.00000000E-05  5.00000000E-05  5.00000000E-05  5.00000000E-05  5.00000000E-05  5.00000000E-05  5.00000000E-05  5.00000000E-05  5.00000000E-05  5.00000000E-05  5.00000000E-05  5.00000000E-05  5.00000000E-05  5.00000000E-05  5.00000000E-05  5.00000000E-05  5.00000000E-05  5.00000000E-05
    5.00000000E-05  5.00000000E-05  5.00000000E-05  5.00000000E-05  5.00000000E-05  5.00000000E-05  5.00000000E-05  5.00000000E-05  5.00000000E-05  5.00000000E-05  5.00000000E-05  5.00000000E-05  5.00000000E-05  5.00000000E-05  5.00000000E-05  5.00000000E-05  5.00000000E-05  5.00000000E-05  5.00000000E-05  5.00000000E-05
    5.00000000E-05  5.00000000E-05  5.00000000E-05  5.00000000E-05  5.00000000E-05  5.00000000E-05  5.00000000E-05  5.00000000E-05  5.00000000E-05  5.00000000E-05  5.00000000E-05  5.00000000E-05  5.00000000E-05  5.00000000E-05  5.00000000E-05  5.00000000E-05  5.00000000E-05  5.00000000E-05  5.00000000E-05  5.00000000E-05
    5.00000000E-05  5.00000000E-05  5.00000000E-05  5.00000000E-05  5.00000000E-05  5.00000000E-05  5.00000000E-05  5.00000000E-05  5.00000000E-05  5.00000000E-05  5.00000000E-05  5.00000000E-05  5.00000000E-05  5.00000000E-05  5.00000000E-05  5.00000000E-05  5.00000000E-05  5.00000000E-05  5.00000000E-05  5.00000000E-05
    5.00000000E-05  5.00000000E-05  5.00000000E-05  5.00000000E-05  5.00000000E-05  5.00000000E-05  5.00000000E-05  5.00000000E-05  5.00000000E-05  5.00000000E-05  5.00000000E-05  5.00000000E-05  5.00000000E-05  5.00000000E-05  5.00000000E-05  5.00000000E-05  5.00000000E-05  5.00000000E-05  5.00000000E-05  5.00000000E-05
    5.00000000E-05  5.00000000E-05  5.00000000E-05  5.00000000E-05  5.00000000E-05  5.00000000E-05  5.00000000E-05  5.00000000E-05  5.00000000E-05  5.00000000E-05  5.00000000E-05  5.00000000E-05  5.00000000E-05  5.00000000E-05  5.00000000E-05  5.00000000E-05  5.00000000E-05  5.00000000E-05  5.00000000E-05  5.00000000E-05
    5.00000000E-05  5.00000000E-05  5.00000000E-05  5.00000000E-05  5.00000000E-05  5.00000000E-05  5.00000000E-05  5.00000000E-05  5.00000000E-05  5.00000000E-05  5.00000000E-05  5.00000000E-05  5.00000000E-05  5.00000000E-05  5.00000000E-05  5.00000000E-05  5.00000000E-05  5.00000000E-05  5.00000000E-05  5.00000000E-05
    5.00000000E-05  5.00000000E-05  5.00000000E-05  5.00000000E-05  5.00000000E-05  5.00000000E-05  5.00000000E-05  5.00000000E-05  5.00000000E-05  5.00000000E-05  5.00000000E-05  5.00000000E-05  5.00000000E-05  5.00000000E-05  5.00000000E-05  5.00000000E-05  5.00000000E-05  5.00000000E-05  5.00000000E-05  5.00000000E-05
    5.00000000E-05  5.00000000E-05  5.00000000E-05  5.00000000E-05  5.00000000E-05  5.00000000E-05  5.00000000E-05  5.00000000E-05  5.00000000E-05  5.00000000E-05  5.00000000E-05  5.00000000E-05  5.00000000E-05  5.00000000E-05  5.00000000E-05  5.00000000E-05  5.00000000E-05  5.00000000E-05  5.00000000E-05  5.00000000E-05
    5.00000000E-05  5.00000000E-05  5.00000000E-05  5.00000000E-05  5.00000000E-05  5.00000000E-05  5.00000000E-05  5.00000000E-05  5.00000000E-05  5.00000000E-05  5.00000000E-05  5.00000000E-05  5.00000000E-05  5.00000000E-05  5.00000000E-05  5.00000000E-05  5.00000000E-05  5.00000000E-05  5.00000000E-05  5.00000000E-05
    5.00000000E-05  5.00000000E-05  5.00000000E-05  5.00000000E-05  5.00000000E-05  5.00000000E-05  5.00000000E-05  5.00000000E-05  5.00000000E-05  5.00000000E-05  5.00000000E-05  5.00000000E-05  5.00000000E-05  5.00000000E-05  5.00000000E-05  5.00000000E-05  5.00000000E-05  5.00000000E-05  5.00000000E-05  5.00000000E-05
    5.00000000E-05  5.00000000E-05  5.00000000E-05  5.00000000E-05  5.00000000E-05  5.00000000E-05  5.00000000E-05  5.00000000E-05  5.00000000E-05  5.00000000E-05  5.00000000E-05  5.00000000E-05  5.00000000E-05  5.00000000E-05  5.00000000E-05  5.00000000E-05  5.00000000E-05  5.00000000E-05  5.00000000E-05  5.00000000E-05
    5.00000000E-05  5.00000000E-05  5.00000000E-05  5.00000000E-05  5.00000000E-05  5.00000000E-05  5.00000000E-05  5.00000000E-05  5.00000000E-05  5.00000000E-05  5.00000000E-05  5.00000000E-05  5.00000000E-05  5.00000000E-05  5.00000000E-05  5.00000000E-05  5.00000000E-05  5.00000000E-05  5.00000000E-05  5.00000000E-05
    5.00000000E-05  5.00000000E-05  5.00000000E-05  5.00000000E-05  5.00000000E-05  5.00000000E-05  5.00000000E-05  5.00000000E-05  5.00000000E-05  5.00000000E-05  5.00000000E-05  5.00000000E-05  5.00000000E-05  5.00000000E-05  5.00000000E-05  5.00000000E-05  5.00000000E-05  5.00000000E-05  5.00000000E-05  5.00000000E-05
    5.00000000E-05  5.00000000E-05  5.00000000E-05  5.00000000E-05  5.00000000E-05  5.00000000E-05  5.00000000E-05  5.00000000E-05  5.00000000E-05  5.00000000E-05  5.00000000E-05  5.00000000E-05  5.00000000E-05  5.00000000E-05  5.00000000E-05  5.00000000E-05  5.00000000E-05  5.00000000E-05  5.00000000E-05  5.00000000E-05
    5.00000000E-05  5.00000000E-05  5.00000000E-05  5.00000000E-05  5.00000000E-05  5.00000000E-05  5.00000000E-05  5.00000000E-05  5.00000000E-05  5.00000000E-05  5.00000000E-05  5.00000000E-05  5.00000000E-05  5.00000000E-05  5.00000000E-05  5.00000000E-05  5.00000000E-05  5.00000000E-05  5.00000000E-05  5.00000000E-05
    5.00000000E-05  5.00000000E-05  5.00000000E-05  5.00000000E-05  5.00000000E-05  5.00000000E-05  5.00000000E-05  5.00000000E-05  5.00000000E-05  5.00000000E-05  5.00000000E-05  5.00000000E-05  5.00000000E-05  5.00000000E-05  5.00000000E-05  5.00000000E-05  5.00000000E-05  5.00000000E-05  5.00000000E-05  5.00000000E-05
    5.00000000E-05  5.00000000E-05  5.00000000E-05  5.00000000E-05  5.00000000E-05  5.00000000E-05  5.00000000E-05  5.00000000E-05  5.00000000E-05  5.00000000E-05  5.00000000E-05  5.00000000E-05  5.00000000E-05  5.00000000E-05  5.00000000E-05  5.00000000E-05  5.00000000E-05  5.00000000E-05  5.00000000E-05  5.00000000E-05
    5.00000000E-05  5.00000000E-05  5.00000000E-05  5.00000000E-05  5.00000000E-05  5.00000000E-05  5.00000000E-05  5.00000000E-05  5.00000000E-05  5.00000000E-05  5.00000000E-05  5.00000000E-05  5.00000000E-05  5.00000000E-05  5.00000000E-05  5.00000000E-05  5.00000000E-05  5.00000000E-05  5.00000000E-05  5.00000000E-05
    5.00000000E-05  5.00000000E-05  5.00000000E-05  5.00000000E-05  5.00000000E-05  5.00000000E-05  5.00000000E-05  5.00000000E-05  5.00000000E-05  5.00000000E-05  5.00000000E-05  5.00000000E-05  5.00000000E-05  5.00000000E-05  5.00000000E-05  5.00000000E-05  5.00000000E-05  5.00000000E-05  5.00000000E-05  5.00000000E-05
    5.00000000E-05  5.00000000E-05  5.00000000E-05  5.00000000E-05  5.00000000E-05  5.00000000E-05  5.00000000E-05  5.00000000E-05  5.00000000E-05  5.00000000E-05  5.00000000E-05  5.00000000E-05  5.00000000E-05  5.00000000E-05  5.00000000E-05  5.00000000E-05  5.00000000E-05  5.00000000E-05  5.00000000E-05  5.00000000E-05
    5.00000000E-05  5.00000000E-05  5.00000000E-05  5.00000000E-05  5.00000000E-05  5.00000000E-05  5.00000000E-05  5.00000000E-05  5.00000000E-05  5.00000000E-05  5.00000000E-05  5.00000000E-05  5.00000000E-05  5.00000000E-05  5.00000000E-05  5.00000000E-05  5.00000000E-05  5.00000000E-05  5.00000000E-05  5.00000000E-05
    5.00000000E-05  5.00000000E-05  5.00000000E-05  5.00000000E-05  5.00000000E-05  5.00000000E-05  5.00000000E-05  5.00000000E-05  5.00000000E-05  5.00000000E-05  5.00000000E-05  5.00000000E-05  5.00000000E-05  5.00000000E-05  5.00000000E-05  5.00000000E-05  5.00000000E-05  5.00000000E-05  5.00000000E-05  5.00000000E-05
    5.00000000E-05  5.00000000E-05  5.00000000E-05  5.00000000E-05  5.00000000E-05  5.00000000E-05  5.00000000E-05  5.00000000E-05  5.00000000E-05  5.00000000E-05  5.00000000E-05  5.00000000E-05  5.00000000E-05  5.00000000E-05  5.00000000E-05  5.00000000E-05  5.00000000E-05  5.00000000E-05  5.00000000E-05  5.00000000E-05
    5.00000000E-05  5.00000000E-05  5.00000000E-05  5.00000000E-05  5.00000000E-05  5.00000000E-05  5.00000000E-05  5.00000000E-05  5.00000000E-05  5.00000000E-05  5.00000000E-05  5.00000000E-05  5.00000000E-05  5.00000000E-05  5.00000000E-05  5.00000000E-05  5.00000000E-05  5.00000000E-05  5.00000000E-05  5.00000000E-05
    5.00000000E-05  5.00000000E-05  5.00000000E-05  5.00000000E-05  5.00000000E-05  5.00000000E-05  5.00000000E-05  5.00000000E-05  5.00000000E-05  5.00000000E-05  5.00000000E-05  5.00000000E-05  5.00000000E-05  5.00000000E-05  5.00000000E-05  5.00000000E-05  5.00000000E-05  5.00000000E-05  5.00000000E-05  5.00000000E-05
    5.00000000E-05  5.00000000E-05  5.00000000E-05  5.00000000E-05  5.00000000E-05  5.00000000E-05  5.00000000E-05  5.00000000E-05  5.00000000E-05  5.00000000E-05  5.00000000E-05  5.00000000E-05  5.00000000E-05  5.00000000E-05  5.00000000E-05  5.00000000E-05  5.00000000E-05  5.00000000E-05  5.00000000E-05  5.00000000E-05
    5.00000000E-05  5.00000000E-05  5.00000000E-05  5.00000000E-05  5.00000000E-05  5.00000000E-05  5.00000000E-05  5.00000000E-05  5.00000000E-05  5.00000000E-05  5.00000000E-05  5.00000000E-05  5.00000000E-05  5.00000000E-05  5.00000000E-05  5.00000000E-05  5.00000000E-05  5.00000000E-05  5.00000000E-05  5.00000000E-05
    5.00000000E-05  5.00000000E-05  5.00000000E-05  5.00000000E-05  5.00000000E-05  5.00000000E-05  5.00000000E-05  5.00000000E-05  5.00000000E-05  5.00000000E-05  5.00000000E-05  5.00000000E-05  5.00000000E-05  5.00000000E-05  5.00000000E-05  5.00000000E-05  5.00000000E-05  5.00000000E-05  5.00000000E-05  5.00000000E-05
    5.00000000E-05  5.00000000E-05  5.00000000E-05  5.00000000E-05  5.00000000E-05  5.00000000E-05  5.00000000E-05  5.00000000E-05  5.00000000E-05  5.00000000E-05  5.00000000E-05  5.00000000E-05  5.00000000E-05  5.00000000E-05  5.00000000E-05  5.00000000E-05  5.00000000E-05  5.00000000E-05  5.00000000E-05  5.00000000E-05
    5.00000000E-05  5.00000000E-05  5.00000000E-05  5.00000000E-05  5.00000000E-05  5.00000000E-05  5.00000000E-05  5.00000000E-05  5.00000000E-05  5.00000000E-05  5.00000000E-05  5.00000000E-05  5.00000000E-05  5.00000000E-05  5.00000000E-05  5.00000000E-05  5.00000000E-05  5.00000000E-05  5.00000000E-05  5.00000000E-05
    5.00000000E-05  5.00000000E-05  5.00000000E-05  5.00000000E-05  5.00000000E-05  5.00000000E-05  5.00000000E-05  5.00000000E-05  5.00000000E-05  5.00000000E-05  5.00000000E-05  5.00000000E-05  5.00000000E-05  5.00000000E-05  5.00000000E-05  5.00000000E-05  5.00000000E-05  5.00000000E-05  5.00000000E-05  5.00000000E-05
    5.00000000E-05  5.00000000E-05  5.00000000E-05  5.00000000E-05  5.00000000E-05  5.00000000E-05  5.00000000E-05  5.00000000E-05  5.00000000E-05  5.00000000E-05  5.00000000E-05  5.00000000E-05  5.00000000E-05  5.00000000E-05  5.00000000E-05  5.00000000E-05  5.00000000E-05  5.00000000E-05  5.00000000E-05  5.00000000E-05
    5.00000000E-05  5.00000000E-05  5.00000000E-05  5.00000000E-05  5.00000000E-05  5.00000000E-05  5.00000000E-05  5.00000000E-05  5.00000000E-05  5.00000000E-05  5.00000000E-05  5.00000000E-05  5.00000000E-05  5.00000000E-05  5.00000000E-05  5.00000000E-05  5.00000000E-05  5.00000000E-05  5.00000000E-05  5.00000000E-05
    5.00000000E-05  5.00000000E-05  5.00000000E-05  5.00000000E-05  5.00000000E-05  5.00000000E-05  5.00000000E-05  5.00000000E-05  5.00000000E-05  5.00000000E-05  5.00000000E-05  5.00000000E-05  5.00000000E-05  5.00000000E-05  5.00000000E-05  5.00000000E-05  5.00000000E-05  5.00000000E-05  5.00000000E-05  5.00000000E-05
    5.00000000E-05  5.00000000E-05  5.00000000E-05  5.00000000E-05  5.00000000E-05  5.00000000E-05  5.00000000E-05  5.00000000E-05  5.00000000E-05  5.00000000E-05  5.00000000E-05  5.00000000E-05  5.00000000E-05  5.00000000E-05  5.00000000E-05  5.00000000E-05  5.00000000E-05  5.00000000E-05  5.00000000E-05  5.00000000E-05
    5.00000000E-05  5.00000000E-05  5.00000000E-05  5.00000000E-05  5.00000000E-05  5.00000000E-05  5.00000000E-05  5.00000000E-05  5.00000000E-05  5.00000000E-05  5.00000000E-05  5.00000000E-05  5.00000000E-05  5.00000000E-05  5.00000000E-05  5.00000000E-05  5.00000000E-05  5.00000000E-05  5.00000000E-05  5.00000000E-05
    5.00000000E-05  5.00000000E-05  5.00000000E-05  5.00000000E-05  5.00000000E-05  5.00000000E-05  5.00000000E-05  5.00000000E-05  5.00000000E-05  5.00000000E-05  5.00000000E-05  5.00000000E-05  5.00000000E-05  5.00000000E-05  5.00000000E-05  5.00000000E-05  5.00000000E-05  5.00000000E-05  5.00000000E-05  5.00000000E-05
    5.00000000E-05  5.00000000E-05  5.00000000E-05  5.00000000E-05  5.00000000E-05  5.00000000E-05  5.00000000E-05  5.00000000E-05  5.00000000E-05  5.00000000E-05  5.00000000E-05  5.00000000E-05  5.00000000E-05  5.00000000E-05  5.00000000E-05  5.00000000E-05  5.00000000E-05  5.00000000E-05  5.00000000E-05  5.00000000E-05
    5.00000000E-05  5.00000000E-05  5.00000000E-05  5.00000000E-05  5.00000000E-05  5.00000000E-05  5.00000000E-05  5.00000000E-05  5.00000000E-05  5.00000000E-05  5.00000000E-05  5.00000000E-05  5.00000000E-05  5.00000000E-05  5.00000000E-05  5.00000000E-05  5.00000000E-05  5.00000000E-05  5.00000000E-05  5.00000000E-05
    5.00000000E-05  5.00000000E-05  5.00000000E-05  5.00000000E-05  5.00000000E-05  5.00000000E-05  5.00000000E-05  5.00000000E-05  5.00000000E-05  5.00000000E-05  5.00000000E-05  5.00000000E-05  5.00000000E-05  5.00000000E-05  5.00000000E-05  5.00000000E-05  5.00000000E-05  5.00000000E-05  5.00000000E-05  5.00000000E-05
    5.00000000E-05  5.00000000E-05  5.00000000E-05  5.00000000E-05  5.00000000E-05  5.00000000E-05  5.00000000E-05  5.00000000E-05  5.00000000E-05  5.00000000E-05  5.00000000E-05  5.00000000E-05  5.00000000E-05  5.00000000E-05  5.00000000E-05  5.00000000E-05  5.00000000E-05  5.00000000E-05  5.00000000E-05  5.00000000E-05
    5.00000000E-05  5.00000000E-05  5.00000000E-05  5.00000000E-05  5.00000000E-05  5.00000000E-05  5.00000000E-05  5.00000000E-05  5.00000000E-05  5.00000000E-05  5.00000000E-05  5.00000000E-05  5.00000000E-05  5.00000000E-05  5.00000000E-05  5.00000000E-05  5.00000000E-05  5.00000000E-05  5.00000000E-05  5.00000000E-05
    5.00000000E-05  5.00000000E-05  5.00000000E-05  5.00000000E-05  5.00000000E-05  5.00000000E-05  5.00000000E-05  5.00000000E-05  5.00000000E-05  5.00000000E-05  5.00000000E-05  5.00000000E-05  5.00000000E-05  5.00000000E-05  5.00000000E-05  5.00000000E-05  5.00000000E-05  5.00000000E-05  5.00000000E-05  5.00000000E-05
    5.00000000E-05  5.00000000E-05  5.00000000E-05  5.00000000E-05  5.00000000E-05  5.00000000E-05  5.00000000E-05  5.00000000E-05  5.00000000E-05  5.00000000E-05  5.00000000E-05  5.00000000E-05  5.00000000E-05  5.00000000E-05  5.00000000E-05  5.00000000E-05  5.00000000E-05  5.00000000E-05  5.00000000E-05  5.00000000E-05
    5.00000000E-05  5.00000000E-05  5.00000000E-05  5.00000000E-05  5.00000000E-05  5.00000000E-05  5.00000000E-05  5.00000000E-05  5.00000000E-05  5.00000000E-05  5.00000000E-05  5.00000000E-05  5.00000000E-05  5.00000000E-05  5.00000000E-05  5.00000000E-05  5.00000000E-05  5.00000000E-05  5.00000000E-05  5.00000000E-05
    5.00000000E-05  5.00000000E-05  5.00000000E-05  5.00000000E-05  5.00000000E-05  5.00000000E-05  5.00000000E-05  5.00000000E-05  5.00000000E-05  5.00000000E-05  5.00000000E-05  5.00000000E-05  5.00000000E-05  5.00000000E-05  5.00000000E-05  5.00000000E-05  5.00000000E-05  5.00000000E-05  5.00000000E-05  5.00000000E-05
    5.00000000E-05  5.00000000E-05  5.00000000E-05  5.00000000E-05  5.00000000E-05  5.00000000E-05  5.00000000E-05  5.00000000E-05  5.00000000E-05  5.00000000E-05  5.00000000E-05  5.00000000E-05  5.00000000E-05  5.00000000E-05  5.00000000E-05  5.00000000E-05  5.00000000E-05  5.00000000E-05  5.00000000E-05  5.00000000E-05
    5.00000000E-05  5.00000000E-05  5.00000000E-05  5.00000000E-05  5.00000000E-05  5.00000000E-05  5.00000000E-05  5.00000000E-05  5.00000000E-05  5.00000000E-05  5.00000000E-05  5.00000000E-05  5.00000000E-05  5.00000000E-05  5.00000000E-05  5.00000000E-05  5.00000000E-05  5.00000000E-05  5.00000000E-05  5.00000000E-05
    5.00000000E-05  5.00000000E-05  5.00000000E-05  5.00000000E-05  5.00000000E-05  5.00000000E-05  5.00000000E-05  5.00000000E-05  5.00000000E-05  5.00000000E-05  5.00000000E-05  5.00000000E-05  5.00000000E-05  5.00000000E-05  5.00000000E-05  5.00000000E-05  5.00000000E-05  5.00000000E-05  5.00000000E-05  5.00000000E-05
    5.00000000E-05  5.00000000E-05  5.00000000E-05  5.00000000E-05  5.00000000E-05  5.00000000E-05  5.00000000E-05  5.00000000E-05  5.00000000E-05  5.00000000E-05  5.00000000E-05  5.00000000E-05  5.00000000E-05  5.00000000E-05  5.00000000E-05  5.00000000E-05  5.00000000E-05  5.00000000E-05  5.00000000E-05  5.00000000E-05
    5.00000000E-05  5.00000000E-05  5.00000000E-05  5.00000000E-05  5.00000000E-05  5.00000000E-05  5.00000000E-05  5.00000000E-05  5.00000000E-05  5.00000000E-05  5.00000000E-05  5.00000000E-05  5.00000000E-05  5.00000000E-05  5.00000000E-05  5.00000000E-05  5.00000000E-05  5.00000000E-05  5.00000000E-05  5.00000000E-05
    5.00000000E-05  5.00000000E-05  5.00000000E-05  5.00000000E-05  5.00000000E-05  5.00000000E-05  5.00000000E-05  5.00000000E-05  5.00000000E-05  5.00000000E-05  5.00000000E-05  5.00000000E-05  5.00000000E-05  5.00000000E-05  5.00000000E-05  5.00000000E-05  5.00000000E-05  5.00000000E-05  5.00000000E-05  5.00000000E-05
    5.00000000E-05  5.00000000E-05  5.00000000E-05  5.00000000E-05  5.00000000E-05  5.00000000E-05  5.00000000E-05  5.00000000E-05  5.00000000E-05  5.00000000E-05  5.00000000E-05  5.00000000E-05  5.00000000E-05  5.00000000E-05  5.00000000E-05  5.00000000E-05  5.00000000E-05  5.00000000E-05  5.00000000E-05  5.00000000E-05
    5.00000000E-05  5.00000000E-05  5.00000000E-05  5.00000000E-05  5.00000000E-05  5.00000000E-05  5.00000000E-05  5.00000000E-05  5.00000000E-05  5.00000000E-05  5.00000000E-05  5.00000000E-05  5.00000000E-05  5.00000000E-05  5.00000000E-05  5.00000000E-05  5.00000000E-05  5.00000000E-05  5.00000000E-05  5.00000000E-05
    5.00000000E-05  5.00000000E-05  5.00000000E-05  5.00000000E-05  5.00000000E-05  5.00000000E-05  5.00000000E-05  5.00000000E-05  5.00000000E-05  5.00000000E-05  5.00000000E-05  5.00000000E-05  5.00000000E-05  5.00000000E-05  5.00000000E-05  5.00000000E-05  5.00000000E-05  5.00000000E-05  5.00000000E-05  5.00000000E-05
    5.00000000E-05  5.00000000E-05  5.00000000E-05  5.00000000E-05  5.00000000E-05  5.00000000E-05  5.00000000E-05  5.00000000E-05  5.00000000E-05  5.00000000E-05  5.00000000E-05  5.00000000E-05  5.00000000E-05  5.00000000E-05  5.00000000E-05  5.00000000E-05  5.00000000E-05  5.00000000E-05  5.00000000E-05  5.00000000E-05
    5.00000000E-05  5.00000000E-05  5.00000000E-05  5.00000000E-05  5.00000000E-05  5.00000000E-05  5.00000000E-05  5.00000000E-05  5.00000000E-05  5.00000000E-05  5.00000000E-05  5.00000000E-05  5.00000000E-05  5.00000000E-05  5.00000000E-05  5.00000000E-05  5.00000000E-05  5.00000000E-05  5.00000000E-05  5.00000000E-05
    5.00000000E-05  5.00000000E-05  5.00000000E-05  5.00000000E-05  5.00000000E-05  5.00000000E-05  5.00000000E-05  5.00000000E-05  5.00000000E-05  5.00000000E-05  5.00000000E-05  5.00000000E-05  5.00000000E-05  5.00000000E-05  5.00000000E-05  5.00000000E-05  5.00000000E-05  5.00000000E-05  5.00000000E-05  5.00000000E-05
    5.00000000E-05  5.00000000E-05  5.00000000E-05  5.00000000E-05  5.00000000E-05  5.00000000E-05  5.00000000E-05  5.00000000E-05  5.00000000E-05  5.00000000E-05  5.00000000E-05  5.00000000E-05  5.00000000E-05  5.00000000E-05  5.00000000E-05  5.00000000E-05  5.00000000E-05  5.00000000E-05  5.00000000E-05  5.00000000E-05
    5.00000000E-05  5.00000000E-05  5.00000000E-05  5.00000000E-05  5.00000000E-05  5.00000000E-05  5.00000000E-05  5.00000000E-05  5.00000000E-05  5.00000000E-05  5.00000000E-05  5.00000000E-05  5.00000000E-05  5.00000000E-05  5.00000000E-05  5.00000000E-05  5.00000000E-05  5.00000000E-05  5.00000000E-05  5.00000000E-05
    5.00000000E-05  5.00000000E-05  5.00000000E-05  5.00000000E-05  5.00000000E-05  5.00000000E-05  5.00000000E-05  5.00000000E-05  5.00000000E-05  5.00000000E-05  5.00000000E-05  5.00000000E-05  5.00000000E-05  5.00000000E-05  5.00000000E-05  5.00000000E-05  5.00000000E-05  5.00000000E-05  5.00000000E-05  5.00000000E-05
    5.00000000E-05  5.00000000E-05  5.00000000E-05  5.00000000E-05  5.00000000E-05  5.00000000E-05  5.00000000E-05  5.00000000E-05  5.00000000E-05  5.00000000E-05  5.00000000E-05  5.00000000E-05  5.00000000E-05  5.00000000E-05  5.00000000E-05  5.00000000E-05  5.00000000E-05  5.00000000E-05  5.00000000E-05  5.00000000E-05
    5.00000000E-05  5.00000000E-05  5.00000000E-05  5.00000000E-05  5.00000000E-05  5.00000000E-05  5.00000000E-05  5.00000000E-05  5.00000000E-05  5.00000000E-05  5.00000000E-05  5.00000000E-05  5.00000000E-05  5.00000000E-05  5.00000000E-05  5.00000000E-05  5.00000000E-05  5.00000000E-05  5.00000000E-05  5.00000000E-05
    5.00000000E-05  5.00000000E-05  5.00000000E-05  5.00000000E-05  5.00000000E-05  5.00000000E-05  5.00000000E-05  5.00000000E-05  5.00000000E-05  5.00000000E-05  5.00000000E-05  5.00000000E-05  5.00000000E-05  5.00000000E-05  5.00000000E-05  5.00000000E-05  5.00000000E-05  5.00000000E-05  5.00000000E-05  5.00000000E-05
    5.00000000E-05  5.00000000E-05  5.00000000E-05  5.00000000E-05  5.00000000E-05  5.00000000E-05  5.00000000E-05  5.00000000E-05  5.00000000E-05  5.00000000E-05  5.00000000E-05  5.00000000E-05  5.00000000E-05  5.00000000E-05  5.00000000E-05  5.00000000E-05  5.00000000E-05  5.00000000E-05  5.00000000E-05  5.00000000E-05
    5.00000000E-05  5.00000000E-05  5.00000000E-05  5.00000000E-05  5.00000000E-05  5.00000000E-05  5.00000000E-05  5.00000000E-05  5.00000000E-05  5.00000000E-05  5.00000000E-05  5.00000000E-05  5.00000000E-05  5.00000000E-05  5.00000000E-05  5.00000000E-05  5.00000000E-05  5.00000000E-05  5.00000000E-05  5.00000000E-05
    5.00000000E-05  5.00000000E-05  5.00000000E-05  5.00000000E-05  5.00000000E-05  5.00000000E-05  5.00000000E-05  5.00000000E-05  5.00000000E-05  5.00000000E-05  5.00000000E-05  5.00000000E-05  5.00000000E-05  5.00000000E-05  5.00000000E-05  5.00000000E-05  5.00000000E-05  5.00000000E-05  5.00000000E-05  5.00000000E-05
    5.00000000E-05  5.00000000E-05  5.00000000E-05  5.00000000E-05  5.00000000E-05  5.00000000E-05  5.00000000E-05  5.00000000E-05  5.00000000E-05  5.00000000E-05  5.00000000E-05  5.00000000E-05  5.00000000E-05  5.00000000E-05  5.00000000E-05  5.00000000E-05  5.00000000E-05  5.00000000E-05  5.00000000E-05  5.00000000E-05
    5.00000000E-05  5.00000000E-05  5.00000000E-05  5.00000000E-05  5.00000000E-05  5.00000000E-05  5.00000000E-05  5.00000000E-05  5.00000000E-05  5.00000000E-05  5.00000000E-05  5.00000000E-05  5.00000000E-05  5.00000000E-05  5.00000000E-05  5.00000000E-05  5.00000000E-05  5.00000000E-05  5.00000000E-05  5.00000000E-05
    5.00000000E-05  5.00000000E-05  5.00000000E-05  5.00000000E-05  5.00000000E-05  5.00000000E-05  5.00000000E-05  5.00000000E-05  5.00000000E-05  5.00000000E-05  5.00000000E-05  5.00000000E-05  5.00000000E-05  5.00000000E-05  5.00000000E-05  5.00000000E-05  5.00000000E-05  5.00000000E-05  5.00000000E-05  5.00000000E-05
    5.00000000E-05  5.00000000E-05  5.00000000E-05  5.00000000E-05  5.00000000E-05  5.00000000E-05  5.00000000E-05  5.00000000E-05  5.00000000E-05  5.00000000E-05  5.00000000E-05  5.00000000E-05  5.00000000E-05  5.00000000E-05  5.00000000E-05  5.00000000E-05  5.00000000E-05  5.00000000E-05  5.00000000E-05  5.00000000E-05
    5.00000000E-05  5.00000000E-05  5.00000000E-05  5.00000000E-05  5.00000000E-05  5.00000000E-05  5.00000000E-05  5.00000000E-05  5.00000000E-05  5.00000000E-05  5.00000000E-05  5.00000000E-05  5.00000000E-05  5.00000000E-05  5.00000000E-05  5.00000000E-05  5.00000000E-05  5.00000000E-05  5.00000000E-05  5.00000000E-05
    5.00000000E-05  5.00000000E-05  5.00000000E-05  5.00000000E-05  5.00000000E-05  5.00000000E-05  5.00000000E-05  5.00000000E-05  5.00000000E-05  5.00000000E-05  5.00000000E-05  5.00000000E-05  5.00000000E-05  5.00000000E-05  5.00000000E-05  5.00000000E-05  5.00000000E-05  5.00000000E-05  5.00000000E-05  5.00000000E-05
    5.00000000E-05  5.00000000E-05  5.00000000E-05  5.00000000E-05  5.00000000E-05  5.00000000E-05  5.00000000E-05  5.00000000E-05  5.00000000E-05  5.00000000E-05  5.00000000E-05  5.00000000E-05  5.00000000E-05  5.00000000E-05  5.00000000E-05  5.00000000E-05  5.00000000E-05  5.00000000E-05  5.00000000E-05  5.00000000E-05
    5.00000000E-05  5.00000000E-05  5.00000000E-05  5.00000000E-05  5.00000000E-05  5.00000000E-05  5.00000000E-05  5.00000000E-05  5.00000000E-05  5.00000000E-05  5.00000000E-05  5.00000000E-05  5.00000000E-05  5.00000000E-05  5.00000000E-05  5.00000000E-05  5.00000000E-05  5.00000000E-05  5.00000000E-05  5.00000000E-05
    5.00000000E-05  5.00000000E-05  5.00000000E-05  5.00000000E-05  5.00000000E-05  5.00000000E-05  5.00000000E-05  5.00000000E-05  5.00000000E-05  5.00000000E-05  5.00000000E-05  5.00000000E-05  5.00000000E-05  5.00000000E-05  5.00000000E-05  5.00000000E-05  5.00000000E-05  5.00000000E-05  5.00000000E-05  5.00000000E-05
    5.00000000E-05  5.00000000E-05  5.00000000E-05  5.00000000E-05  5.00000000E-05  5.00000000E-05  5.00000000E-05  5.00000000E-05  5.00000000E-05  5.00000000E-05  5.00000000E-05  5.00000000E-05  5.00000000E-05  5.00000000E-05  5.00000000E-05  5.00000000E-05  5.00000000E-05  5.00000000E-05  5.00000000E-05  5.00000000E-05
    5.00000000E-05  5.00000000E-05  5.00000000E-05  5.00000000E-05  5.00000000E-05  5.00000000E-05  5.00000000E-05  5.00000000E-05  5.00000000E-05  5.00000000E-05  5.00000000E-05  5.00000000E-05  5.00000000E-05  5.00000000E-05  5.00000000E-05  5.00000000E-05  5.00000000E-05  5.00000000E-05  5.00000000E-05  5.00000000E-05
    5.00000000E-05  5.00000000E-05  5.00000000E-05  5.00000000E-05  5.00000000E-05  5.00000000E-05  5.00000000E-05  5.00000000E-05  5.00000000E-05  5.00000000E-05  5.00000000E-05  5.00000000E-05  5.00000000E-05  5.00000000E-05  5.00000000E-05  5.00000000E-05  5.00000000E-05  5.00000000E-05  5.00000000E-05  5.00000000E-05
    5.00000000E-05  5.00000000E-05  5.00000000E-05  5.00000000E-05  5.00000000E-05  5.00000000E-05  5.00000000E-05  5.00000000E-05  5.00000000E-05  5.00000000E-05  5.00000000E-05  5.00000000E-05  5.00000000E-05  5.00000000E-05  5.00000000E-05  5.00000000E-05  5.00000000E-05  5.00000000E-05  5.00000000E-05  5.00000000E-05
    5.00000000E-05  5.00000000E-05  5.00000000E-05  5.00000000E-05  5.00000000E-05  5.00000000E-05  5.00000000E-05  5.00000000E-05  5.00000000E-05  5.00000000E-05  5.00000000E-05  5.00000000E-05  5.00000000E-05  5.00000000E-05  5.00000000E-05  5.00000000E-05  5.00000000E-05  5.00000000E-05  5.00000000E-05  5.00000000E-05
    5.00000000E-05  5.00000000E-05  5.00000000E-05  5.00000000E-05  5.00000000E-05  5.00000000E-05  5.00000000E-05  5.00000000E-05  5.00000000E-05  5.00000000E-05  5.00000000E-05  5.00000000E-05  5.00000000E-05  5.00000000E-05  5.00000000E-05  5.00000000E-05  5.00000000E-05  5.00000000E-05  5.00000000E-05  5.00000000E-05
    5.00000000E-05  5.00000000E-05  5.00000000E-05  5.00000000E-05  5.00000000E-05  5.00000000E-05  5.00000000E-05  5.00000000E-05  5.00000000E-05  5.00000000E-05  5.00000000E-05  5.00000000E-05  5.00000000E-05  5.00000000E-05  5.00000000E-05  5.00000000E-05  5.00000000E-05  5.00000000E-05  5.00000000E-05  5.00000000E-05
    5.00000000E-05  5.00000000E-05  5.00000000E-05  5.00000000E-05  5.00000000E-05  5.00000000E-05  5.00000000E-05  5.00000000E-05  5.00000000E-05  5.00000000E-05  5.00000000E-05  5.00000000E-05  5.00000000E-05  5.00000000E-05  5.00000000E-05  5.00000000E-05  5.00000000E-05  5.00000000E-05  5.00000000E-05  5.00000000E-05
    5.00000000E-05  5.00000000E-05  5.00000000E-05  5.00000000E-05  5.00000000E-05  5.00000000E-05  5.00000000E-05  5.00000000E-05  5.00000000E-05  5.00000000E-05  5.00000000E-05  5.00000000E-05  5.00000000E-05  5.00000000E-05  5.00000000E-05  5.00000000E-05  5.00000000E-05  5.00000000E-05  5.00000000E-05  5.00000000E-05
    5.00000000E-05  5.00000000E-05  5.00000000E-05  5.00000000E-05  5.00000000E-05  5.00000000E-05  5.00000000E-05  5.00000000E-05  5.00000000E-05  5.00000000E-05  5.00000000E-05  5.00000000E-05  5.00000000E-05  5.00000000E-05  5.00000000E-05  5.00000000E-05  5.00000000E-05  5.00000000E-05  5.00000000E-05  5.00000000E-05
    5.00000000E-05  5.00000000E-05  5.00000000E-05  5.00000000E-05  5.00000000E-05  5.00000000E-05  5.00000000E-05  5.00000000E-05  5.00000000E-05  5.00000000E-05  5.00000000E-05  5.00000000E-05  5.00000000E-05  5.00000000E-05  5.00000000E-05  5.00000000E-05  5.00000000E-05  5.00000000E-05  5.00000000E-05  5.00000000E-05
    5.00000000E-05  5.00000000E-05  5.00000000E-05  5.00000000E-05  5.00000000E-05  5.00000000E-05  5.00000000E-05  5.00000000E-05  5.00000000E-05  5.00000000E-05  5.00000000E-05  5.00000000E-05  5.00000000E-05  5.00000000E-05  5.00000000E-05  5.00000000E-05  5.00000000E-05  5.00000000E-05  5.00000000E-05  5.00000000E-05
    5.00000000E-05  5.00000000E-05  5.00000000E-05  5.00000000E-05  5.00000000E-05  5.00000000E-05  5.00000000E-05  5.00000000E-05  5.00000000E-05  5.00000000E-05  5.00000000E-05  5.00000000E-05  5.00000000E-05  5.00000000E-05  5.00000000E-05  5.00000000E-05  5.00000000E-05  5.00000000E-05  5.00000000E-05  5.00000000E-05