# File generated by Flopy version 3.4.1 on 07/22/2024 at 09:17:48.
BEGIN options
  XT3D
END options

BEGIN griddata
  icelltype
    CONSTANT  1
  k
    INTERNAL  FACTOR  1.0
         4.69535619       4.69535619       4.69535619       4.69535619       4.69535619       4.69535619       4.69535619       4.69535619       4.69535619       4.69535619       4.69535619       4.69535619       4.69535619       4.69535619       4.69535619       4.69535619       4.69535619       4.69535619       4.69535619       4.69535619
         4.69535619       4.69535619       4.69535619       4.69535619       4.69535619       4.69535619       4.69535619       4.69535619       4.69535619       4.69535619       4.69535619       4.69535619       4.69535619       4.69535619       4.69535619       4.69535619       4.69535619       4.69535619       4.69535619       4.69535619
         4.69535619       4.69535619       4.69535619       4.69535619       4.69535619       4.69535619       4.69535619       4.69535619       4.69535619       4.69535619       4.69535619       4.69535619       4.69535619       4.69535619       4.69535619       4.69535619       4.69535619       4.69535619       4.69535619       4.69535619
         4.69535619       4.69535619       4.69535619       4.69535619       4.69535619       4.69535619       4.69535619       4.69535619       4.69535619       4.69535619       4.69535619       4.69535619       4.69535619       4.69535619       4.69535619       4.69535619       4.69535619       4.69535619       4.69535619       4.69535619
         4.69535619       4.69535619       4.69535619       4.69535619       4.69535619       4.69535619       4.69535619       4.69535619       4.69535619       4.69535619       4.69535619       4.69535619       4.69535619       4.69535619       4.69535619       4.69535619       4.69535619       4.69535619       4.69535619       4.69535619
         4.69535619       4.69535619       4.69535619       4.69535619       4.69535619       4.69535619       4.69535619       4.69535619       4.69535619       4.69535619       4.69535619       4.69535619       4.69535619       4.69535619       4.69535619       4.69535619       4.69535619       4.69535619       4.69535619       4.69535619
         4.69535619       4.69535619       4.69535619       4.69535619       4.69535619       4.69535619       4.69535619       4.69535619       4.69535619       4.69535619       4.69535619       4.69535619       4.69535619       4.69535619       4.69535619       4.69535619       4.69535619       4.69535619       4.69535619       4.69535619
         4.69535619       4.69535619       4.69535619       4.69535619       4.69535619       4.69535619       4.69535619       4.69535619       4.69535619       4.69535619       4.69535619       4.69535619       4.69535619       4.69535619       4.69535619       4.69535619       4.69535619       4.69535619       4.69535619       4.69535619
         4.69535619       4.69535619       4.69535619       4.69535619       4.69535619       4.69535619       4.69535619       4.69535619       4.69535619       4.69535619       4.69535619       4.69535619       4.69535619       4.69535619       4.69535619       4.69535619       4.69535619       4.69535619       4.69535619       4.69535619
         4.69535619       4.69535619       4.69535619       4.69535619       4.69535619       4.69535619       4.69535619       4.69535619       4.69535619       4.69535619       4.69535619       4.69535619       4.69535619       4.69535619       4.69535619       4.69535619       4.69535619       4.69535619       4.69535619       4.69535619
         4.69535619       4.69535619       4.69535619       4.69535619       4.69535619       4.69535619       4.69535619       4.69535619       4.69535619       4.69535619       4.69535619       4.69535619       4.69535619       4.69535619       4.69535619       4.69535619       4.69535619       4.69535619       4.69535619       4.69535619
         4.69535619       4.69535619       4.69535619       4.69535619       4.69535619       4.69535619       4.69535619       4.69535619       4.69535619       4.69535619       4.69535619       4.69535619       4.69535619       4.69535619       4.69535619       4.69535619       4.69535619       4.69535619       4.69535619       4.69535619
         4.69535619       4.69535619       4.69535619       4.69535619       4.69535619       4.69535619       4.69535619       4.69535619       4.69535619       4.69535619       4.69535619       4.69535619       4.69535619       4.69535619       4.69535619       4.69535619       4.69535619       4.69535619       4.69535619       4.69535619
         4.69535619       4.69535619       4.69535619       4.69535619       4.69535619       4.69535619       4.69535619       4.69535619       4.69535619       4.69535619       4.69535619       4.69535619       4.69535619       4.69535619       4.69535619       4.69535619       4.69535619       4.69535619       4.69535619       4.69535619
         4.69535619       4.69535619       4.69535619       4.69535619       4.69535619       4.69535619       4.69535619       4.69535619       4.69535619       4.69535619       4.69535619       4.69535619       4.69535619       4.69535619       4.69535619       4.69535619       4.69535619       4.69535619       4.69535619       4.69535619
         4.69535619       4.69535619       4.69535619       4.69535619       4.69535619       4.69535619       4.69535619       4.69535619       4.69535619       4.69535619       4.69535619       4.69535619       4.69535619       4.69535619       4.69535619       4.69535619       4.69535619       4.69535619       4.69535619       4.69535619
         4.69535619       4.69535619       4.69535619       4.69535619       4.69535619       4.69535619       4.69535619       4.69535619       4.69535619       4.69535619       4.69535619       4.69535619       4.69535619       4.69535619       4.69535619       4.69535619       4.69535619       4.69535619       4.69535619       4.69535619
         4.69535619       4.69535619       4.69535619       4.69535619       4.69535619       4.69535619       4.69535619       4.69535619       4.69535619       4.69535619       4.69535619       4.69535619       4.69535619       4.69535619       4.69535619       4.69535619       4.69535619       4.69535619       4.69535619       4.69535619
         4.69535619       4.69535619       4.69535619       4.69535619       4.69535619       4.69535619       4.69535619       4.69535619       4.69535619       4.69535619       4.69535619       4.69535619       4.69535619       4.69535619       4.69535619       4.69535619       4.69535619       4.69535619       4.69535619       4.69535619
         4.69535619       4.69535619       4.69535619       4.69535619       4.69535619       4.69535619       4.69535619       4.69535619       4.69535619       4.69535619       4.69535619       4.69535619       4.69535619       4.69535619       4.69535619       4.69535619       4.69535619       4.69535619       4.69535619       4.69535619
         4.69535619       4.69535619       4.69535619       4.69535619       4.69535619       4.69535619       4.69535619       4.69535619       4.69535619       4.69535619       4.69535619       4.69535619       4.69535619       4.69535619       4.69535619       4.69535619       4.69535619       4.69535619       4.69535619       4.69535619
         4.69535619       4.69535619       4.69535619       4.69535619       4.69535619       4.69535619       4.69535619       4.69535619       4.69535619       4.69535619       4.69535619       4.69535619       4.69535619       4.69535619       4.69535619       4.69535619       4.69535619       4.69535619       4.69535619       4.69535619
         4.69535619       4.69535619       4.69535619       4.69535619       4.69535619       4.69535619       4.69535619       4.69535619       4.69535619       4.69535619       4.69535619       4.69535619       4.69535619       4.69535619       4.69535619       4.69535619       4.69535619       4.69535619       4.69535619       4.69535619
         4.69535619       4.69535619       4.69535619       4.69535619       4.69535619       4.69535619       4.69535619       4.69535619       4.69535619       4.69535619       4.69535619       4.69535619       4.69535619       4.69535619       4.69535619       4.69535619       4.69535619       4.69535619       4.69535619       4.69535619
         4.69535619       4.69535619       4.69535619       4.69535619       4.69535619       4.69535619       4.69535619       4.69535619       4.69535619       4.69535619       4.69535619       4.69535619       4.69535619       4.69535619       4.69535619       4.69535619       4.69535619       4.69535619       4.69535619       4.69535619
         4.69535619       4.69535619       4.69535619       4.69535619       4.69535619       4.69535619       4.69535619       4.69535619       4.69535619       4.69535619       4.69535619       4.69535619       4.69535619       4.69535619       4.69535619       4.69535619       4.69535619       4.69535619       4.69535619       4.69535619
         4.69535619       4.69535619       4.69535619       4.69535619       4.69535619       4.69535619       4.69535619       4.69535619       4.69535619       4.69535619       4.69535619       4.69535619       4.69535619       4.69535619       4.69535619       4.69535619       4.69535619       4.69535619       4.69535619       4.69535619
         4.69535619       4.69535619       4.69535619       4.69535619       4.69535619       4.69535619       4.69535619       4.69535619       4.69535619       4.69535619       4.69535619       4.69535619       4.69535619       4.69535619       4.69535619       4.69535619       4.69535619       4.69535619       4.69535619       4.69535619
         4.69535619       4.69535619       4.69535619       4.69535619       4.69535619       4.69535619       4.69535619       4.69535619       4.69535619       4.69535619       4.69535619       4.69535619       4.69535619       4.69535619       4.69535619       4.69535619       4.69535619       4.69535619       4.69535619       4.69535619
         4.69535619       4.69535619       4.69535619       4.69535619       4.69535619       4.69535619       4.69535619       4.69535619       4.69535619       4.69535619       4.69535619       4.69535619       4.69535619       4.69535619       4.69535619       4.69535619       4.69535619       4.69535619       4.69535619       4.69535619
         4.69535619       4.69535619       4.69535619       4.69535619       4.69535619       4.69535619       4.69535619       4.69535619       4.69535619       4.69535619       4.69535619       4.69535619       4.69535619       4.69535619       4.69535619       4.69535619       4.69535619       4.69535619       4.69535619       4.69535619
         4.69535619       4.69535619       4.69535619       4.69535619       4.69535619       4.69535619       4.69535619       4.69535619       4.69535619       4.69535619       4.69535619       4.69535619       4.69535619       4.69535619       4.69535619       4.69535619       4.69535619       4.69535619       4.69535619       4.69535619
         4.69535619       4.69535619       4.69535619       4.69535619       4.69535619       4.69535619       4.69535619       4.69535619       4.69535619       4.69535619       4.69535619       4.69535619       4.69535619       4.69535619       4.69535619       4.69535619       4.69535619       4.69535619       4.69535619       4.69535619
         4.69535619       4.69535619       4.69535619       4.69535619       4.69535619       4.69535619       4.69535619       4.69535619       4.69535619       4.69535619       4.69535619       4.69535619       4.69535619       4.69535619       4.69535619       4.69535619       4.69535619       4.69535619       4.69535619       4.69535619
         4.69535619       4.69535619       4.69535619       4.69535619       4.69535619       4.69535619       4.69535619       4.69535619       4.69535619       4.69535619       4.69535619       4.69535619       4.69535619       4.69535619       4.69535619       4.69535619       4.69535619       4.69535619       4.69535619       4.69535619
         4.69535619       4.69535619       4.69535619       4.69535619       4.69535619       4.69535619       4.69535619       4.69535619       4.69535619       4.69535619       4.69535619       4.69535619       4.69535619       4.69535619       4.69535619       4.69535619       4.69535619       4.69535619       4.69535619       4.69535619
         4.69535619       4.69535619       4.69535619       4.69535619       4.69535619       4.69535619       4.69535619       4.69535619       4.69535619       4.69535619       4.69535619       4.69535619       4.69535619       4.69535619       4.69535619       4.69535619       4.69535619       4.69535619       4.69535619       4.69535619
         4.69535619       4.69535619       4.69535619       4.69535619       4.69535619       4.69535619       4.69535619       4.69535619       4.69535619       4.69535619       4.69535619       4.69535619       4.69535619       4.69535619       4.69535619       4.69535619       4.69535619       4.69535619       4.69535619       4.69535619
         4.69535619       4.69535619       4.69535619       4.69535619       4.69535619       4.69535619       4.69535619       4.69535619       4.69535619       4.69535619       4.69535619       4.69535619       4.69535619       4.69535619       4.69535619       4.69535619       4.69535619       4.69535619       4.69535619       4.69535619
         4.69535619       4.69535619       4.69535619       4.69535619       4.69535619       4.69535619       4.69535619       4.69535619       4.69535619       4.69535619       4.69535619       4.69535619       4.69535619       4.69535619       4.69535619       4.69535619       4.69535619       4.69535619       4.69535619       4.69535619
         4.69535619       4.69535619       4.69535619       4.69535619       4.69535619       4.69535619       4.69535619       4.69535619       4.69535619       4.69535619       4.69535619       4.69535619       4.69535619       4.69535619       4.69535619       4.69535619       4.69535619       4.69535619       4.69535619       4.69535619
         4.69535619       4.69535619       4.69535619       4.69535619       4.69535619       4.69535619       4.69535619       4.69535619       4.69535619       4.69535619       4.69535619       4.69535619       4.69535619       4.69535619       4.69535619       4.69535619       4.69535619       4.69535619       4.69535619       4.69535619
         4.69535619       4.69535619       4.69535619       4.69535619       4.69535619       4.69535619       4.69535619       4.69535619       4.69535619       4.69535619       4.69535619       4.69535619       4.69535619       4.69535619       4.69535619       4.69535619       4.69535619       4.69535619       4.69535619       4.69535619
         4.69535619       4.69535619       4.69535619       4.69535619       4.69535619       4.69535619       4.69535619       4.69535619       4.69535619       4.69535619       4.69535619       4.69535619       4.69535619       4.69535619       4.69535619       4.69535619       4.69535619       4.69535619       4.69535619       4.69535619
         4.69535619       4.69535619       4.69535619       4.69535619       4.69535619       4.69535619       4.69535619       4.69535619       4.69535619       4.69535619       4.69535619       4.69535619       4.69535619       4.69535619       4.69535619       4.69535619       4.69535619       4.69535619       4.69535619       4.69535619
         4.69535619       4.69535619       4.69535619       4.69535619       4.69535619       4.69535619       4.69535619       4.69535619       4.69535619       4.69535619       4.69535619       4.69535619       4.69535619       4.69535619       4.69535619       4.69535619       4.69535619       4.69535619       4.69535619       4.69535619
         4.69535619       4.69535619       4.69535619       4.69535619       4.69535619       4.69535619       4.69535619       4.69535619       4.69535619       4.69535619       4.69535619       4.69535619       4.69535619       4.69535619       4.69535619       4.69535619       4.69535619       4.69535619       4.69535619       4.69535619
         4.69535619       4.69535619       4.69535619       4.69535619       4.69535619       4.69535619       4.69535619       4.69535619       4.69535619       4.69535619       4.69535619       4.69535619       4.69535619       4.69535619       4.69535619       4.69535619       4.69535619       4.69535619       4.69535619       4.69535619
         4.69535619       4.69535619       4.69535619       4.69535619       4.69535619       4.69535619       4.69535619       4.69535619       4.69535619       4.69535619       4.69535619       4.69535619       4.69535619       4.69535619       4.69535619       4.69535619       4.69535619       4.69535619       4.69535619       4.69535619
         4.69535619       4.69535619       4.69535619       4.69535619       4.69535619       4.69535619       4.69535619       4.69535619       4.69535619       4.69535619       4.69535619       4.69535619       4.69535619       4.69535619       4.69535619       4.69535619       4.69535619       4.69535619       4.69535619       4.69535619
         4.69535619       4.69535619       4.69535619       4.69535619       4.69535619       4.69535619       4.69535619       4.69535619       4.69535619       4.69535619       4.69535619       4.69535619       4.69535619       4.69535619       4.69535619       4.69535619       4.69535619       4.69535619       4.69535619       4.69535619
         4.69535619       4.69535619       4.69535619       4.69535619       4.69535619       4.69535619       4.69535619       4.69535619       4.69535619       4.69535619       4.69535619       4.69535619       4.69535619       4.69535619       4.69535619       4.69535619       4.69535619       4.69535619       4.69535619       4.69535619
         4.69535619       4.69535619       4.69535619       4.69535619       4.69535619       4.69535619       4.69535619       4.69535619       4.69535619       4.69535619       4.69535619       4.69535619       4.69535619       4.69535619       4.69535619       4.69535619       4.69535619       4.69535619       4.69535619       4.69535619
         4.69535619       4.69535619       4.69535619       4.69535619       4.69535619       4.69535619       4.69535619       4.69535619       4.69535619       4.69535619       4.69535619       4.69535619       4.69535619       4.69535619       4.69535619       4.69535619       4.69535619       4.69535619       4.69535619       4.69535619
         4.69535619       4.69535619       4.69535619       4.69535619       4.69535619       4.69535619       4.69535619       4.69535619       4.69535619       4.69535619       4.69535619       4.69535619       4.69535619       4.69535619       4.69535619       4.69535619       4.69535619       4.69535619       4.69535619       4.69535619
         4.69535619       4.69535619       4.69535619       4.69535619       4.69535619       4.69535619       4.69535619       4.69535619       4.69535619       4.69535619       4.69535619       4.69535619       4.69535619       4.69535619       4.69535619       4.69535619       4.69535619       4.69535619       4.69535619       4.69535619
         4.69535619       4.69535619       4.69535619       4.69535619       4.69535619       4.69535619       4.69535619       4.69535619       4.69535619       4.69535619       4.69535619       4.69535619       4.69535619       4.69535619       4.69535619       4.69535619       4.69535619       4.69535619       4.69535619       4.69535619
         4.69535619       4.69535619       4.69535619       4.69535619       4.69535619       4.69535619       4.69535619       4.69535619       4.69535619       4.69535619       4.69535619       4.69535619       4.69535619       4.69535619       4.69535619       4.69535619       4.69535619       4.69535619       4.69535619       4.69535619
         4.69535619       4.69535619       4.69535619       4.69535619       4.69535619       4.69535619       4.69535619       4.69535619       4.69535619       4.69535619       4.69535619       4.69535619       4.69535619       4.69535619       4.69535619       4.69535619       4.69535619       4.69535619       4.69535619       4.69535619
         4.69535619       4.69535619       4.69535619       4.69535619       4.69535619       4.69535619       4.69535619       4.69535619       4.69535619       4.69535619       4.69535619       4.69535619       4.69535619       4.69535619       4.69535619       4.69535619       4.69535619       4.69535619       4.69535619       4.69535619
         4.69535619       4.69535619       4.69535619       4.69535619       4.69535619       4.69535619       4.69535619       4.69535619       4.69535619       4.69535619       4.69535619       4.69535619       4.69535619       4.69535619       4.69535619       4.69535619       4.69535619       4.69535619       4.69535619       4.69535619
         4.69535619       4.69535619       4.69535619       4.69535619       4.69535619       4.69535619       4.69535619       4.69535619       4.69535619       4.69535619       4.69535619       4.69535619       4.69535619       4.69535619       4.69535619       4.69535619       4.69535619       4.69535619       4.69535619       4.69535619
         4.69535619       4.69535619       4.69535619       4.69535619       4.69535619       4.69535619       4.69535619       4.69535619       4.69535619       4.69535619       4.69535619       4.69535619       4.69535619       4.69535619       4.69535619       4.69535619       4.69535619       4.69535619       4.69535619       4.69535619
         4.69535619       4.69535619       4.69535619       4.69535619       4.69535619       4.69535619       4.69535619       4.69535619       4.69535619       4.69535619       4.69535619       4.69535619       4.69535619       4.69535619       4.69535619       4.69535619       4.69535619       4.69535619       4.69535619       4.69535619
         4.69535619       4.69535619       4.69535619       4.69535619       4.69535619       4.69535619       4.69535619       4.69535619       4.69535619       4.69535619       4.69535619       4.69535619       4.69535619       4.69535619       4.69535619       4.69535619       4.69535619       4.69535619       4.69535619       4.69535619
         4.69535619       4.69535619       4.69535619       4.69535619       4.69535619       4.69535619       4.69535619       4.69535619       4.69535619       4.69535619       4.69535619       4.69535619       4.69535619       4.69535619       4.69535619       4.69535619       4.69535619       4.69535619       4.69535619       4.69535619
         4.69535619       4.69535619       4.69535619       4.69535619       4.69535619       4.69535619       4.69535619       4.69535619       4.69535619       4.69535619       4.69535619       4.69535619       4.69535619       4.69535619       4.69535619       4.69535619       4.69535619       4.69535619       4.69535619       4.69535619
         4.69535619       4.69535619       4.69535619       4.69535619       4.69535619       4.69535619       4.69535619       4.69535619       4.69535619       4.69535619       4.69535619       4.69535619       4.69535619       4.69535619       4.69535619       4.69535619       4.69535619       4.69535619       4.69535619       4.69535619
         4.69535619       4.69535619       4.69535619       4.69535619       4.69535619       4.69535619       4.69535619       4.69535619       4.69535619       4.69535619       4.69535619       4.69535619       4.69535619       4.69535619       4.69535619       4.69535619       4.69535619       4.69535619       4.69535619       4.69535619
         4.69535619       4.69535619       4.69535619       4.69535619       4.69535619       4.69535619       4.69535619       4.69535619       4.69535619       4.69535619       4.69535619       4.69535619       4.69535619       4.69535619       4.69535619       4.69535619       4.69535619       4.69535619       4.69535619       4.69535619
         4.69535619       4.69535619       4.69535619       4.69535619       4.69535619       4.69535619       4.69535619       4.69535619       4.69535619       4.69535619       4.69535619       4.69535619       4.69535619       4.69535619       4.69535619       4.69535619       4.69535619       4.69535619       4.69535619       4.69535619
         4.69535619       4.69535619       4.69535619       4.69535619       4.69535619       4.69535619       4.69535619       4.69535619       4.69535619       4.69535619       4.69535619       4.69535619       4.69535619       4.69535619       4.69535619       4.69535619       4.69535619       4.69535619       4.69535619       4.69535619
         4.69535619       4.69535619       4.69535619       4.69535619       4.69535619       4.69535619       4.69535619       4.69535619       4.69535619       4.69535619       4.69535619       4.69535619       4.69535619       4.69535619       4.69535619       4.69535619       4.69535619       4.69535619       4.69535619       4.69535619
         4.69535619       4.69535619       4.69535619       4.69535619       4.69535619       4.69535619       4.69535619       4.69535619       4.69535619       4.69535619       4.69535619       4.69535619       4.69535619       4.69535619       4.69535619       4.69535619       4.69535619       4.69535619       4.69535619       4.69535619
         4.69535619       4.69535619       4.69535619       4.69535619       4.69535619       4.69535619       4.69535619       4.69535619       4.69535619       4.69535619       4.69535619       4.69535619       4.69535619       4.69535619       4.69535619       4.69535619       4.69535619       4.69535619       4.69535619       4.69535619
         4.69535619       4.69535619       4.69535619       4.69535619       4.69535619       4.69535619       4.69535619       4.69535619       4.69535619       4.69535619       4.69535619       4.69535619       4.69535619       4.69535619       4.69535619       4.69535619       4.69535619       4.69535619       4.69535619       4.69535619
         4.69535619       4.69535619       4.69535619       4.69535619       4.69535619       4.69535619       4.69535619       4.69535619       4.69535619       4.69535619       4.69535619       4.69535619       4.69535619       4.69535619       4.69535619       4.69535619       4.69535619       4.69535619       4.69535619       4.69535619
         4.69535619       4.69535619       4.69535619       4.69535619       4.69535619       4.69535619       4.69535619       4.69535619       4.69535619       4.69535619       4.69535619       4.69535619       4.69535619       4.69535619       4.69535619       4.69535619       4.69535619       4.69535619       4.69535619       4.69535619
         4.69535619       4.69535619       4.69535619       4.69535619       4.69535619       4.69535619       4.69535619       4.69535619       4.69535619       4.69535619       4.69535619       4.69535619       4.69535619       4.69535619       4.69535619       4.69535619       4.69535619       4.69535619       4.69535619       4.69535619
         4.69535619       4.69535619       4.69535619       4.69535619       4.69535619       4.69535619       4.69535619       4.69535619       4.69535619       4.69535619       4.69535619       4.69535619       4.69535619       4.69535619       4.69535619       4.69535619       4.69535619       4.69535619       4.69535619       4.69535619
         4.69535619       4.69535619       4.69535619       4.69535619       4.69535619       4.69535619       4.69535619       4.69535619       4.69535619       4.69535619       4.69535619       4.69535619       4.69535619       4.69535619       4.69535619       4.69535619       4.69535619       4.69535619       4.69535619       4.69535619
         4.69535619       4.69535619       4.69535619       4.69535619       4.69535619       4.69535619       4.69535619       4.69535619       4.69535619       4.69535619       4.69535619       4.69535619       4.69535619       4.69535619       4.69535619       4.69535619       4.69535619       4.69535619       4.69535619       4.69535619
         4.69535619       4.69535619       4.69535619       4.69535619       4.69535619       4.69535619       4.69535619       4.69535619       4.69535619       4.69535619       4.69535619       4.69535619       4.69535619       4.69535619       4.69535619       4.69535619       4.69535619       4.69535619       4.69535619       4.69535619
         4.69535619       4.69535619       4.69535619       4.69535619       4.69535619       4.69535619       4.69535619       4.69535619       4.69535619       4.69535619       4.69535619       4.69535619       4.69535619       4.69535619       4.69535619       4.69535619       4.69535619       4.69535619       4.69535619       4.69535619
         4.69535619       4.69535619       4.69535619       4.69535619       4.69535619       4.69535619       4.69535619       4.69535619       4.69535619       4.69535619       4.69535619       4.69535619       4.69535619       4.69535619       4.69535619       4.69535619       4.69535619       4.69535619       4.69535619       4.69535619
         4.69535619       4.69535619       4.69535619       4.69535619       4.69535619       4.69535619       4.69535619       4.69535619       4.69535619       4.69535619       4.69535619       4.69535619       4.69535619       4.69535619       4.69535619       4.69535619       4.69535619       4.69535619       4.69535619       4.69535619