# File generated by Flopy version 3.4.1 on 07/22/2024 at 09:17:48.
BEGIN options
  PRINT_INPUT
  PRINT_FLOWS
  SAVE_FLOWS
END options

BEGIN dimensions
  MAXBOUND  12
END dimensions

BEGIN period  1
  6038    -666.66666667
  6838    -666.66666667
  7638    -666.66666667
  6039    -666.66666667
  6839    -666.66666667
  7639    -666.66666667
  6040    -666.66666667
  6840    -666.66666667
  7640    -666.66666667
  6041    -666.66666667
  6841    -666.66666667
  7641    -666.66666667
END period  1

