# File generated by Flopy version 3.4.1 on 09/12/2024 at 06:51:20.
BEGIN griddata
  strt
    INTERNAL  FACTOR  1.0
       -19.75000000     -15.63339246     -12.77595077     -10.50602583      -8.69957398      -7.26675563      -6.15313614      -5.28290094      -4.63093358      -4.17129962      -3.89057153      -3.76157146      -3.77196921      -3.90892269      -4.16266974      -4.53263129      -5.00301928      -5.56691852      -6.21971804      -6.95706632
        -7.78783322      -8.69917576      -9.69719557     -10.78366828     -11.95562702     -13.23314193     -14.62763610     -16.10178937     -17.68271187     -19.37533718     -21.19423217     -23.10972228     -25.12851995     -27.30779288     -29.61422300     -32.06935870     -34.68955743     -37.49821641     -40.53428952     -43.93924232
       -49.23895475     -49.24045424     -49.23498232     -49.23393241     -49.23478480     -49.23606803     -49.23796292     -49.24021036     -49.24405786     -49.25071650     -49.20883580     -49.20883579     -49.20883577     -49.20883574     -49.20883570     -49.20883564     -49.20883551     -49.20883565     -49.20883581     -49.20883598
       -49.28288829     -49.28489599     -49.28669249     -49.28780302     -49.28835948     -49.28934375     -49.29119056     -49.29197796     -49.29337090     -49.29492059     -49.29576706     -49.29552110     -49.29620966     -49.20883575     -49.20883571     -49.20883572     -49.20883575     -49.20883581     -49.20883594     -49.20883606
       -49.20883612     -36.72895668     -29.77278548     -24.54685752     -20.38295850     -16.89089863     -13.88400937     -11.30439326      -9.09927542      -7.18276684      -5.55575760      -4.16315197      -2.99658984      -2.04435242      -1.29284696      -0.72402651      -0.34979297      -0.15144773      -0.12848754      -0.27967422
        -0.59571140      -1.08099259      -1.73160666      -2.49970940      -3.41045114      -4.46543353      -5.66358328      -6.98734716      -8.43827422      -9.96102445     -11.41248895     -12.35064439     -12.98225018     -13.54191378     -14.07709474     -14.60788002     -15.15502814     -15.72258029     -16.33742664     -17.15279103
       -19.75000000     -19.75000000     -19.75000000     -19.75000000     -19.75000000     -19.75000000     -19.75000000     -19.75000000     -19.75000000     -19.75000000     -19.75000000     -19.75000000     -19.75000000     -19.75000000     -19.75000000     -19.75000000     -19.75000000     -19.75000000     -19.75000000     -19.75000000
       -19.75000000     -19.75000000     -19.75000000     -19.75000000     -19.75000000     -19.75000000     -19.75000000     -19.75000000     -19.75000000     -19.75000000     -19.75000000     -19.75000000     -19.75000000     -19.75000000     -19.75000000     -19.75000000     -19.75000000     -19.75000000     -19.75000000     -19.75000000
       -16.76684750     -45.43310378     -39.82139390     -17.86823365      -5.87637761      -5.92543771      -5.86972372      -5.74090830      -5.58926979      -5.46288573      -5.40106672      -5.43297184      -5.55898892      -5.73274340      -6.15635354      -6.25420813      -6.11448742      -5.84700291      -5.56432502      -5.33056836
        -5.19600714      -5.23344419      -5.48061154      -5.84921070      -7.86700355      -7.89413910      -7.72097308      -7.42404352      -7.11938500      -6.91421595      -6.87966748      -7.03301415      -7.32510834      -7.64667116      -8.40404204      -8.45318842      -8.08872996      -7.48914527      -6.89767272      -6.50175888
        -6.42595004      -6.71125525      -7.29066498      -7.94957849      -6.90466758      -6.98982143      -6.93336685      -6.76917956      -6.56304605      -6.38219222      -6.28776801      -6.31984770      -6.47784652      -6.70599806      -7.23842508      -7.39906107      -7.26196931      -6.92809632      -6.54024621      -6.20243485
        -6.02359841      -6.06217471      -6.35124614      -6.82566103      -9.08087098      -9.14107952      -8.96970070      -8.64611026      -8.30133820      -8.05678950      -7.99450364      -8.14108960      -8.45139165      -8.81247341      -9.66256562      -9.79000520      -9.41528563      -8.75460673      -8.08920123      -7.62229960
        -7.49239855      -7.76287414      -8.37342088      -9.10716321      -5.64534443      -7.36961041      -6.61872538      -8.54308020      -4.17440758      -6.44263912     -14.20585906      -8.34912273      -8.10299981      -7.75204765     -41.00928605      -0.64332487     -17.09460276     -20.53007428      -3.80882967     -45.37944081
        -5.10146181     -17.48571834     -12.98189770     -34.48660009      -4.57808390     -46.21656608     -41.83047575      -0.68991974     -17.25789657     -16.47224782     -26.79877411     -39.44187084      -5.90421405     -46.37537913     -45.93015913     -41.35432262      -0.16006227     -17.16680829     -18.42372124     -23.51623475
       -30.45308912     -36.86584510     -42.22495887      -6.76270276     -46.14358617     -46.29688879     -46.07375777     -45.73238693     -41.12464683      -0.28078113     -17.11922803     -39.87303400     -11.13173104     -16.82413243      -6.67609748     -15.34973827     -17.82736388     -10.09831979      -3.83820420     -42.32685776
        -2.30448640     -17.36098656     -14.66578259      -5.17390601     -41.50776214      -0.29636627     -17.21036783     -32.42476491     -25.09621883      -4.66291128     -16.75710261     -15.10725664     -41.09239472     -41.24101685      -4.32643356     -39.68691231     -40.45301585      -9.31699859     -17.88239919     -17.63257251
       -11.46494492      -1.36067592     -17.31459055     -16.95810131     -11.87591313     -27.68135621      -8.86420405      -4.12504811      -3.72562279     -42.07665248     -44.15633010      -3.54239957     -17.42575791     -17.54400996     -17.73263845     -17.86867138     -17.88501036     -41.40047854      -7.00622064     -40.15976356
       -16.08975061     -13.43287457     -16.74780675     -16.80293057      -4.11015320      -5.50454991     -39.66338819     -39.93001896      -7.41304621      -2.07340051     -40.56725075     -12.05957829     -20.63090422      -8.80725852     -14.07391924     -16.90519239     -17.00521523     -32.82913190      -3.09364070     -16.78728664
       -16.73585029     -42.68498786     -41.90468598     -42.20033125     -44.95613957     -16.75243601     -14.26814825     -17.59886132     -16.85480987      -7.64513354     -17.77403916     -12.53055049     -16.70231928     -39.96917865     -40.26397976     -15.58415388     -16.82423771      -9.24109649     -39.87221911     -39.60976518
       -39.67208992     -39.92691227      -5.77327319      -1.25236356     -40.52866069     -40.72243200     -10.20142696     -17.84282176     -23.83791553     -16.92908219     -17.04337847     -16.97204052     -16.77462345     -14.68149422     -12.99646362     -16.80753454     -39.79675340     -39.87145733      -5.34758706      -5.20918209
        -5.26191442      -5.44453423      -6.00059785      -6.46242432      -5.65823739      -5.69767242      -5.97060059      -6.17801056      -6.20224898      -6.10861156      -6.19395008      -6.36862689      -6.72545890      -7.02923289      -6.58108984      -7.31692437      -7.32480514      -7.55543836      -6.03653404      -7.08506788
        -7.85242424      -6.69718621      -6.56239265      -6.99279599      -7.61361184      -7.18687050      -8.05891511      -7.62236348      -7.78018447      -8.26612133      -8.42629931      -8.17412897      -8.73231432      -8.41313611      -9.07316469      -9.60082426      -9.72490168      -9.37865888      -5.14578065      -5.17554795
        -6.12042071      -5.58918448      -5.81408454      -6.14982245      -6.46775810      -6.41329003      -6.38674750      -7.14950219      -7.54724396      -7.41617594      -6.67105199      -7.92907179      -7.26349553      -7.76763785      -8.66353740      -9.00559576      -7.75932594      -9.51338982     -10.35519901      -5.02596878
        -5.31576664      -5.14176305      -5.35424749      -6.14240211      -6.24753073      -5.77093660      -5.66435334      -5.88169104      -6.02469389      -6.43554839      -6.70865318      -6.63020727      -6.24377578      -6.71296895      -7.32253824      -7.79934117      -7.16129610      -7.01999823      -7.54127439      -8.51107354
        -7.27904500      -6.99696714      -8.05671785      -8.68090769      -8.99442299      -8.82075922      -8.20916554      -7.54209490      -9.08677471     -10.07755829      -9.98753633     -10.19159845      -5.07946019      -5.47031479      -6.38612204      -5.90285698      -5.92233918      -6.41365762      -6.86959471      -7.56796929
        -8.58497855      -8.34015463      -8.02314749      -8.54439814     -10.08043802      -9.54023435      -6.04074470      -5.92843069      -5.80377678      -6.65680547      -7.64467296      -8.43694377      -8.56688416      -8.27932020      -7.92410009      -7.53677773      -8.16638584      -5.19494832      -5.01132229      -5.83149465
        -5.71250895      -6.74316504      -7.39896003      -6.91334338      -9.11977248     -11.04203237      -9.22853519      -6.17504153      -7.87497576      -8.52697918      -4.90043454      -6.02752367      -5.49106464      -6.97768649      -7.02431935      -7.60598140      -9.54963394     -10.00756272     -10.87314131      -5.92823070
        -9.29284439      -7.00117125      -5.50529644      -5.57315501      -5.62563549      -9.08529228      -9.56667049      -9.44387541      -8.87025594      -8.89024557      -5.76186321      -5.79988984     -10.41546308      -8.39675130      -8.51448036      -5.79968871      -9.38657561      -5.60145142      -8.87879431      -4.33272917
        -4.33470169      -4.37786497      -4.35263880     -17.07086748     -19.75000000     -21.99602790     -13.80660816     -13.91853643     -17.10532728     -19.75000000     -41.69026865     -19.75000000     -17.28728927     -28.57778079      -0.91676111      -0.81691618     -19.75000000     -16.94434154      -7.24226980      -7.36231981
        -0.99084993      -0.98503523      -8.29200591      -8.10936492      -8.10559612     -40.36056284     -49.29030183      -5.02321347      -5.04660275      -0.43188141      -0.41675864     -40.88572177     -39.94800328     -16.83056719     -11.97021432     -17.68255658     -17.50757584     -13.85536020     -16.79030457     -39.89255048
        -9.31858293      -4.43625447      -4.21438531     -14.46321002     -14.29037256     -14.93512547      -1.23665398     -14.19091548      -7.47448004      -0.94919271      -7.64847705     -33.18109901      -5.64525940     -34.27080776      -8.71672073      -4.21123971      -4.49014941     -14.58416011     -15.32533526     -13.41879046
       -15.71950143      -0.49416801      -0.86237370     -15.08673386      -7.99976455      -6.98211823      -1.23373898      -8.76093052     -35.38694688      -4.80136643     -36.28821147      -4.15468955      -3.94744275      -4.59801672      -5.03971761     -12.81817149     -15.58055401     -12.21966766     -13.60075535     -15.63168896
        -1.03838681      -0.60260415     -14.92574891      -8.55661187      -6.30110219      -1.53347787      -1.87215591      -9.30575265     -10.69046067     -29.25574531     -35.11649655      -5.00191939      -3.81683499     -36.65824587     -14.11866561     -13.26126526      -0.80446196     -12.47282088      -9.44220438      -8.39611030
        -6.83715117     -36.12810621     -30.42580273     -13.69907692     -12.55361896     -12.58088598     -11.02603367     -11.51579459     -13.10782510      -1.08467010      -1.66578266      -1.33916806      -1.83791474      -1.35560722      -0.73585098     -33.38511757     -32.42080817     -28.76407586     -31.26156034     -33.22246745
       -29.66559361     -30.86929956     -33.55042162     -35.34189586     -24.43090689     -29.81094243     -36.22742929     -41.65328146     -12.80584165     -15.23970803     -16.22465802     -12.92097434     -30.16695415     -15.23460477     -13.23403038     -30.85119160      -4.78462489      -6.27181602      -5.20727963      -6.56095814
        -9.05337468      -9.81921984     -11.48579404     -10.68605980      -7.91338949     -11.76421289      -8.95787143     -36.33744987      -9.86378907     -11.97846893     -10.74846234     -11.90010456      -1.85250397      -1.00879644      -1.32535172      -0.74375222     -29.82159206     -34.16224045     -37.02234554     -38.51753925
       -36.21649665     -26.00845394     -21.37359801     -32.80935702     -19.25257294     -33.68479900     -41.97353232     -43.80969997     -38.57600085     -14.07189892      -8.20989424     -14.84974654     -15.87448350     -16.57126418     -15.75807894     -11.00252280     -14.08924578     -25.68511187     -32.86760992     -15.48255820
       -16.04989438     -15.84095694     -14.31836452     -13.33260111     -33.42584547     -31.17124830      -4.82195748      -5.33066674      -6.75801640      -8.30466749     -10.72468652      -9.98135304     -12.28725826     -32.79465498     -36.53607389      -9.56583175     -13.29926627      -1.57241841      -0.52495165     -25.15641520
       -36.48251418     -37.34858842     -40.62325379     -41.02161767     -38.61560942     -37.58428475     -27.74652843     -22.79285052     -33.99436118     -16.59691275     -31.55280739     -43.03244095     -43.91196787     -14.54606233      -7.14195004     -14.45042615     -16.32555369     -16.61796231      -9.47445012     -22.20348301
       -15.96266887     -14.60988390     -14.40434037     -34.12637580     -33.65203416      -4.66249826      -5.52402452      -7.21801605      -7.96102181     -11.79445768     -10.43944007     -12.77074018     -28.21151778     -32.93556586     -36.73612934     -12.76636698     -15.17131337      -0.51226457      -0.28993244     -31.79503369
       -42.24845131     -29.58704411     -27.59094702     -26.38848345     -43.05694604     -11.29032217     -13.61467861     -14.04320928     -16.40174479      -9.84384349     -23.04744415     -15.62442522     -13.97040088     -14.62253672     -34.16141638      -4.62266929      -6.87907257      -8.69762211     -13.21198678     -12.61966487
       -33.17442136     -34.14245849     -38.14596144     -28.85626704     -26.78735563     -11.44105738     -14.42051132     -14.89497396     -12.68995492     -29.57929231     -12.97699498     -29.61556273     -30.84984289     -30.70333421     -14.19678424     -10.61283597     -12.86709028     -24.87577155     -29.99314771     -13.20158205
       -32.49685422     -34.42372193     -36.92287507     -32.14784603     -33.23269733     -35.06684857     -36.40519985     -38.88635963     -38.13982326     -41.47760326     -39.38383546     -35.12752763     -33.93482531     -32.88304824     -13.81781401     -29.77514952     -41.37897413     -37.39637025     -34.70488638     -39.34454749
       -36.72433167     -36.62083211     -12.63067578      -6.03105961      -4.84341120      -3.92228408     -14.95437753     -15.59487674     -15.36320055      -1.75420164     -14.75277004      -0.54807991      -6.08555470     -34.53317582      -6.76314228      -3.74499264      -3.01828255     -10.77685416     -10.87952979      -2.92485605
        -5.02278946      -5.70109819     -10.60748611      -7.96530753     -34.03799541     -15.42703325     -14.65150603     -35.84909907     -33.75733326     -22.98390500     -13.68499204      -6.04903493     -12.04987454     -28.13432086      -4.84284098      -5.70280349      -7.41487175      -7.23607666     -25.23065073     -14.77445256
        -0.30379578     -11.66963660     -27.18254738     -14.95389459      -4.41897836      -7.27653593      -9.00581546     -25.12490581     -30.19324639     -27.97676668     -40.30966766      -6.29830193      -5.50547376      -3.96154734     -13.86516904     -17.53004933     -12.48354471      -2.79183809     -13.65512761      -0.89231283
        -6.48049198     -31.95975773      -8.76572215      -3.72957954      -4.44646201      -4.47854431     -10.20322011     -29.99591722     -15.86108037     -14.91237020     -14.34770907     -13.67447127     -35.34008595     -33.87686237     -33.12149959     -30.51428022     -25.24085848     -15.93942729      -6.84698130     -10.60579968
       -24.87909453      -5.02470425      -6.03749407      -7.63904982      -6.57897718      -5.97072842      -6.77493367      -9.80372576     -23.03999791      -6.76580461      -4.82084847     -20.93330384     -15.65291213     -13.45583076     -10.21827083     -11.31274823      -0.53607288     -24.20951056     -26.75406228      -7.48743359
       -23.72273938     -13.75903506     -13.55263857      -5.39967240      -6.25803872      -6.04295596      -7.47979714      -8.37144986      -5.37295325      -6.29074108     -11.73811697      -0.77617275      -4.88700341      -7.81362264      -7.89497710      -5.72489588      -4.92485234      -8.32946153      -6.07932841      -5.05616131
        -5.13611679      -5.24474538      -5.43026730      -5.08133954      -5.34993523      -5.41186370      -5.54904894      -5.45953559      -5.53880072      -5.31090319      -5.83009272      -5.14810008      -5.75334221      -4.83430412      -5.73475403      -5.86821314      -5.97427815      -6.26204553     -36.97388402      -9.12531551
        -3.11593968     -12.09565293     -19.40555873      -8.25306490      -8.69363121     -20.59796678      -8.66453921     -20.47982791     -23.20941133      -9.75452833     -23.04816496     -26.23450915     -13.60713428     -12.63198519     -13.13644877     -11.08349169     -10.46077222      -0.84849547      -1.47114868      -6.97325114
        -4.89069739      -6.04622709      -6.97108138      -6.40295580     -31.65753959      -7.46146809     -17.57438575     -25.40507171      -8.64076932      -7.47782605     -20.46442652     -21.36994683     -26.26137324     -23.79689423     -21.92116961     -23.13345572     -19.85095403     -20.10894009     -18.33469829     -22.53006632
       -20.55257345     -12.76307924     -12.72116247     -13.81802706     -10.21164242      -1.20928649      -4.36781626      -7.09896615      -6.56345702      -6.92354491      -7.28357793      -6.72771558     -27.66359010      -6.42961164      -8.12072394      -6.63177561     -15.00915047     -12.04300450      -8.06003495      -8.72165587
       -21.93264694      -7.24849445      -8.69891187      -8.17854947      -9.17081580      -9.86993354     -11.06924340      -6.85014205      -6.28609862     -17.70842270     -23.49799578      -6.18741341     -19.29387389     -25.53713856     -21.62594652     -19.05484127     -19.86119588     -17.55677024     -18.92424178      -5.08776042
        -5.37514155     -17.08000737     -20.69010526     -19.50751714     -21.86129548     -23.48588758     -26.16687284     -24.69696375     -13.06009556     -10.55295305     -13.78283305     -11.83431592      -9.71384690     -11.70084413     -14.90418803     -12.01681221      -5.42736781     -13.21692072     -26.36310588     -31.03945641
        -3.76997328      -4.12803874      -8.08953172      -9.41959793     -35.07076139     -33.31725349      -7.93646742      -3.26742389     -23.18164852     -12.30163757     -14.19119757     -14.05766244     -13.48573565     -13.20214527     -12.89331152      -6.44805177     -15.04547675     -12.23512804     -11.31837793     -12.05195514
        -8.35417111      -7.90565090      -9.40993539     -15.75425553      -9.76018705     -10.21251838      -9.74060542     -11.41482389     -11.65098656      -8.41620104     -13.03626308      -5.73282425      -7.99452711      -9.02088990      -8.78382043      -9.12720257      -9.11172814     -32.69465489      -7.24597303      -2.19483754
       -19.42025124     -12.46302462     -12.51418717     -11.48797391     -12.02750495     -11.37310875     -10.27649628     -10.60996245     -11.39128381     -10.33950188      -9.67441583     -11.09397002     -15.87393371      -8.72439968     -10.22640975      -7.53854530     -10.64769732      -8.35704262      -6.57137444      -9.95401154
        -4.97087942      -4.35073422      -4.77337029      -4.02551801      -7.52839317      -8.63433610     -29.81443048     -11.34408750     -17.26544775     -19.02052225     -17.28164600     -17.19783904     -15.56793075     -13.57633002      -6.81994257     -10.36507117     -14.27012210     -14.35721527     -14.02017834      -6.41349463
       -10.88321137     -11.02194377     -10.80164400     -11.60241043     -12.41450858     -10.47274918     -12.88734349     -12.14268160     -12.94449612     -11.58410572     -12.23839995     -12.06078258     -10.77022616     -15.39427272     -16.92204494     -13.29427332     -11.95487574      -9.48000823      -9.96494611     -10.03685218
        -9.90841629     -24.12679682      -3.91569109      -6.80238072      -5.36020302      -6.90730537      -4.74899078      -9.67691333      -8.48772069     -10.14393604      -8.80089061     -10.07782204      -6.61966475      -8.68867945      -9.19441221      -8.54314746      -9.69754250      -6.36355184     -10.62885247     -10.13073645
       -14.43620603      -1.57498551      -2.81557289      -2.56200110      -2.03249671      -2.08049415      -2.65985522      -4.37362911      -3.39017411      -3.43846256      -3.73941316      -4.45611031      -5.59884031      -5.33482329      -6.54274998      -5.05915278      -8.16289090      -3.81338611      -3.33541074      -5.79427094
        -7.90148995      -2.83342186      -2.65577569      -3.35700600      -3.52095761     -29.38832409     -15.75108418      -4.35343852      -6.56319822      -7.35542565     -13.16802100     -13.99015752     -27.53833526      -8.67140373      -8.11259935      -8.67600230      -8.06938728      -8.77749262      -8.55638627      -9.63467225
        -9.28071579      -2.76543353      -4.41175635      -2.31757082      -2.81106073      -2.01034469      -2.22417117      -1.39992963      -1.65764705      -3.14154809      -5.06947206      -3.77491028      -3.72519193      -4.79331961      -4.61108302      -5.57370322      -8.74502296      -6.95472379      -9.50089487      -6.33892178
        -8.85710442      -9.94249973      -8.44106097      -9.68139680      -7.47580956     -10.41717346     -12.62020596     -12.10233716     -12.84855059     -12.68176528     -12.25686390     -11.99390660     -11.55056057     -11.41014621     -11.60898690     -20.25465499     -22.32600196     -22.76091084      -5.38758559      -6.02705609
        -5.53359733     -13.63617944     -11.10085696      -9.38926618     -10.33536401     -10.72580987     -11.15181095     -11.58377937     -11.81952163     -10.41164496      -9.89057492     -11.31482553      -9.37876286     -20.38297651     -10.20895709     -10.45455588     -10.76835425     -11.04972957      -6.41171738      -8.09190376
       -11.06090159      -5.11919038     -18.02688006     -17.11220425     -17.78592568      -4.39170650      -4.87404136      -4.83651916      -5.51598240      -4.51804262      -3.94448851      -4.05220460     -15.89421913     -14.61576711     -11.39173298     -15.76999933     -12.65196582     -13.35559504     -13.35783522     -14.58254953
       -12.62914249     -13.20941085     -13.08457883     -12.79812671     -12.06756183     -12.29889544      -4.91848474      -5.82068008      -7.62517560      -8.31584524      -9.29641003      -4.98623758     -11.02211443      -6.04237693      -6.26233458      -5.22993956      -4.21462421      -3.97745170      -4.53906914      -9.85672326
       -10.95672871      -9.80575570     -10.57780269      -9.99310448     -10.43331249     -10.14140637     -10.83083389     -10.90991172     -10.75549887     -10.97756304     -10.71146438      -9.51874172     -10.88348682     -10.73152054     -11.07420196     -11.13616851     -10.46496069     -10.54943481     -10.34014185      -9.91443819
       -11.39191541     -10.77591686     -11.25018154     -11.75195377      -6.04163162      -6.15951821     -12.52802667     -12.99769407     -10.80426253     -22.45487917     -21.47739741     -19.37305070     -22.94537579     -10.25817817     -10.74088276      -6.68590625      -9.12569989     -10.40977055      -8.88496767      -4.09749297
        -4.77816250      -6.15784017      -4.96362741      -3.78078547      -3.72579728      -3.81573070      -3.84886265      -3.98307194      -3.86484250      -3.95300829      -4.29689674      -3.88429936      -3.97795841      -4.31280687      -4.05832225      -4.70312195      -4.16161537      -4.23820265      -5.52037040      -4.52105711
        -4.41032690      -4.27302636      -4.50229445      -4.84837235     -10.03204488     -15.03109936     -12.14706038     -12.02611464     -16.60939414     -13.84991931     -14.70955562     -13.39280096     -14.44028596     -15.66625368     -11.40910711     -11.70990666     -10.91463867     -11.32563323     -11.19048088     -10.91689909
       -11.11077378     -10.44648976     -10.92413818     -10.53727745     -10.73412994     -10.66899023     -10.20152732      -9.22480059      -6.42290601     -10.91360513     -10.65881248      -9.16218305     -23.86717265      -6.44053748      -6.13982468      -5.44481795      -8.18522597      -6.02684159      -7.66177813      -4.64033962
        -3.84762186     -17.20460517     -17.74208067     -15.17108673     -12.85677929     -11.10240950     -13.62719671     -15.24645783     -16.18223824     -14.92883301     -15.27936093     -15.33404164     -10.63213792     -10.04893679     -10.35740263      -7.73739335      -9.37829513     -10.12739505     -10.08816101     -10.78011071
        -7.39864514     -11.90176303     -11.43059414     -11.78666458     -10.48907920     -12.54234141      -9.58525339      -7.90250606      -8.37610739      -8.50866472      -9.78683450     -25.34466001     -23.62518280     -20.89850999     -22.37979137     -20.79400983     -22.50390105     -26.35685066     -21.70185089     -24.35957023
       -21.68590440     -19.60921026     -23.27761220     -23.35521459     -26.22513977     -22.89693563     -21.35765360     -24.54684157     -25.77440278     -27.69677069     -28.56402568     -29.55620683     -25.18762848      -5.94844794     -14.67450396     -11.69706450     -11.32531327      -9.68992876     -10.22557423     -14.14867121
       -12.81161630     -15.40832127     -16.31221237     -18.27592373     -11.93087505     -12.08408616     -11.40181601     -11.08921433     -10.51554420     -11.74126194     -10.46933603      -9.56886302     -10.12102717     -12.69461086      -9.79602286      -9.70985309     -10.68423677     -19.41802464     -19.19778070     -20.76326305
       -15.09569646     -16.83900834     -14.80984193     -18.97634333      -8.28219173      -8.94512469      -8.79873488     -10.87969226      -7.38692777     -10.08777497     -11.56748709      -9.56199416      -7.20849639     -12.69084936     -11.14977290      -8.79666081      -7.61237723      -9.14192571     -10.39588427      -7.80941604
       -30.62619467     -25.06487057     -27.14489262     -27.06306098     -12.10116928     -21.58611818     -22.60963559     -17.65058878     -19.19806514     -20.25672178     -13.63669171     -12.90864410     -13.19314793      -9.23174850     -10.61480835     -11.81958181      -9.92307866     -13.26062790     -13.53212829     -12.42128062
       -14.03604078     -11.08895047     -12.96924041     -11.70487496     -14.21115524     -14.99610514     -11.63692093     -16.24118780     -17.33963861     -16.87547991     -13.83518875     -15.04884783     -15.42007406     -17.13967303     -16.23265574     -15.62626710     -17.31402695     -18.88874838     -18.76495949     -19.98734006
       -18.50497541     -23.85895080     -28.57454756     -26.78711616     -24.35250438     -22.46697915     -21.37521246     -22.11114660     -24.70082301      -7.20372842     -17.02465471      -8.97092218     -11.88579313     -12.41472458     -12.68727020      -5.51755025      -8.52061220      -8.65094358      -8.88340562      -8.93715765
        -9.04579970     -30.07434862     -29.71855664     -27.61211569     -31.57335911     -31.32276836     -30.92773677     -28.89668175      -8.86476888     -12.51408063     -12.04353868      -7.28151178     -17.36267273     -21.21813575     -17.70791186     -18.13169824     -17.12684500     -16.42792088     -16.54867883     -15.57207109
       -17.59032193     -18.42598345     -19.20270860     -12.35084147     -14.76113594     -20.04046363     -19.25000000     -15.67161635     -12.81187574     -10.53889073      -8.73157936      -7.29814247      -6.18596811      -5.31693645      -4.66927026      -4.20983267      -3.92882343      -3.79999008      -3.81087712      -3.94826907
        -4.20249710      -4.57353291      -5.04310769      -5.60724927      -6.26015904      -6.99862646      -7.82971227      -8.74143711      -9.73837800     -10.82433876     -11.99416254     -13.27177202     -14.66492592     -16.14030763     -17.72132541     -19.41336801     -21.23310873     -23.14926650     -25.16633553     -27.33652344
       -29.64202948     -32.09597242     -34.71483021     -37.52194288     -40.55578097     -43.95351311     -49.25000000     -49.25000000     -49.25000000     -49.25000000     -49.25000000     -49.25000000     -49.25000000     -49.25000000     -49.25000000     -49.25000000     -49.25000000     -49.25000000     -49.25000000     -49.25000000
       -49.25000000     -49.25000000     -49.25000000     -49.25000000     -49.25000000     -49.25000000     -49.25000000     -49.25000000     -49.25000000     -49.25000000     -49.25000000     -49.25000000     -49.25000000     -49.25000000     -49.25000000     -49.25000000     -49.25000000     -49.25000000     -49.25000000     -49.25000000
       -49.25000000     -49.25000000     -49.25000000     -49.25000000     -49.25000000     -49.25000000     -49.25000000     -36.77012108     -29.81662212     -24.62006227     -20.44421460     -16.94227828     -13.92916250     -11.34275447      -9.11693604      -7.20042879      -5.57343409      -4.18110546      -3.01476686      -2.06269890