# File generated by Flopy version 3.4.1 on 07/22/2024 at 09:17:48.
BEGIN griddata
  strt
    INTERNAL  FACTOR  1.0
       -19.43606476     -17.03339563     -15.13933802     -13.48307718     -12.02361748     -10.74370946      -9.62103348      -8.62699624      -7.75233501      -6.99185240      -6.35181313      -5.81151902      -5.37291590      -5.03210218      -4.78524798      -4.63370602      -4.57872517      -4.61398499      -4.73524537      -4.94488171
        -5.24718870      -5.64206593      -6.13252271      -6.73035493      -7.44079425      -8.28421555      -9.26289011     -10.37011467     -11.61178560     -12.99831148     -14.53602520     -16.21510665     -18.08651579     -20.14831257     -22.45004454     -25.07140065     -28.10891298     -31.69848585     -36.11735991     -41.94298518
       -49.52274828     -49.53490301     -49.57025513     -49.62594687     -49.69054348     -49.73164260     -49.75793593     -49.78152754     -49.78599371     -49.78673611     -49.03880361     -49.03880301     -49.03880247     -49.03880168     -49.03880078     -49.03879946     -49.03879705     -49.03879971     -49.03880280     -49.03880527
       -49.84247927     -49.86198506     -49.86299954     -49.85765820     -49.86263356     -49.87965614     -49.88327884     -49.89229930     -49.90505867     -49.91515688     -49.90813978     -49.90067892     -49.90615080     -49.03880085     -49.03880042     -49.03880057     -49.03880106     -49.03880202     -49.03880413     -49.03880616
       -49.03880719     -38.97059753     -33.04962382     -28.83086633     -25.32936322     -22.35618437     -19.75930753     -17.47463844     -15.55770602     -13.80164865     -12.27794339     -10.90114906      -9.67131075      -8.58506571      -7.63599010      -6.81249066      -6.10350472      -5.50602976      -5.02149114      -4.64895581
        -4.38260252      -4.22126831      -4.15014998      -4.14500211      -4.21985537      -4.38322419      -4.63940153      -4.98950953      -5.43283647      -5.96847522      -6.59294053      -7.30024187      -8.11875425      -9.07002670     -10.14375152     -11.34424452     -12.67085691     -14.10897846     -15.59603959     -17.22470362
       -19.43606424     -19.43606407     -19.43606397     -19.43606387     -19.43606382     -19.43606375     -19.43606367     -19.43606357     -19.43606346     -19.43606342     -19.43606344     -19.43606341     -19.43606332     -19.43606323     -19.43606330     -19.43606337     -19.43606348     -19.43606362     -19.43606378     -19.43606413
       -19.43606447     -19.43606470     -19.43606486     -19.43606500     -19.43606507     -19.43606502     -19.43606506     -19.43606494     -19.43606493     -19.43606501     -19.43606480     -19.43606462     -19.43606445     -19.43606427     -19.43606408     -19.43606391     -19.43606408     -19.43606425     -19.43606441     -19.43606457
       -17.75903115     -44.39757999     -41.51267865     -17.87275328      -4.69101378      -4.73658310      -4.81813142      -4.91785873      -5.00070441      -5.02338215      -4.96788477      -4.86103094      -4.75583919      -4.69479444      -4.60150944      -4.69099923      -4.82347293      -5.01028226      -5.19519015      -5.25761943
        -5.13523714      -4.89735565      -4.68347302      -4.58426276      -4.82652610      -4.84536363      -4.80907162      -4.74215535      -4.67094416      -4.61314061      -4.58341336      -4.59793196      -4.66264738      -4.75395680      -4.99755018      -5.02304543      -4.92989590      -4.79531565      -4.67349666      -4.57567200
        -4.50856106      -4.51125295      -4.63579692      -4.83843025      -5.04285768      -5.11366385      -5.19051893      -5.25713412      -5.28952425      -5.26402286      -5.18309664      -5.08091838      -5.00876634      -4.99907715      -5.00400290      -5.13314348      -5.26066390      -5.39178271      -5.48282296      -5.45368233
        -5.29225244      -5.06330461      -4.90207041      -4.90094201      -5.28408039      -5.31993036      -5.29356711      -5.22363580      -5.13820489      -5.06130495      -5.01521379      -5.02271475      -5.09100920      -5.19446756      -5.45361461      -5.51293596      -5.44338270      -5.30158407      -5.14939698      -5.01055748
        -4.90817257      -4.90319444      -5.03866402      -5.26413915      -5.76941537      -5.83849237      -6.02929006      -6.28179980      -6.49940338      -6.58675993      -6.50189571      -6.28604350      -6.03376194      -5.84130626      -4.50930202      -4.47577755      -4.46054073      -4.48139922      -4.53158525      -4.58101668
        -4.60298515      -4.59472740      -4.57096260      -4.54245214     -10.67569418     -10.49888110     -10.13188921      -9.73286328      -9.45468094      -9.38427833      -9.53703820      -9.86284978     -10.25944539     -10.57822027      -6.88977649      -7.00351315      -7.18475380      -7.37840526      -7.51568854      -7.53141807
        -7.40747656      -7.19760147      -6.99626721      -6.88307886     -13.94750098     -13.70879058     -13.17419748     -12.56652361     -12.11627693     -11.96977041     -12.17628866     -12.66619338     -13.27712238     -13.77408571      -4.83333472      -4.69807263      -5.12849410      -5.15284698      -6.15407226      -4.52344589
        -9.99837527      -7.18597878     -12.91752851      -5.20962064     -42.00737152      -4.39851646     -17.73138202     -13.95047772      -6.13781762     -42.24587830     -11.82220809     -17.92269057      -8.09684601     -27.91186822      -4.58654747     -42.79213422     -41.74380894      -6.70136847     -17.83507664     -10.64023873
       -19.67184309     -34.38111494      -4.63670182     -43.73956518     -42.45660079     -41.73732768      -5.22450148     -17.75991394     -12.19135576     -16.58541004     -23.35827994     -30.86078294     -38.91394017      -4.85367895     -44.16919272     -43.23161911     -42.62602837     -42.29091835     -41.63181014      -4.73435274
       -17.74862409     -41.89869832      -6.38271067     -17.70652933     -10.16201854     -21.02453290     -17.89336806      -6.32091249      -5.08144486     -41.70825414      -8.86585950     -17.87053595      -9.27773871      -4.54722392     -41.69160807      -5.88180885     -17.80337643     -25.51465656     -18.07397592      -7.80426574
       -17.74047280     -12.60957600     -42.12877789     -41.71592405      -4.35279239     -41.34639610     -41.79627977     -15.74815692     -17.84662266     -17.91892492      -7.11747324      -7.69075053     -17.85588437     -17.73172544     -14.49449814     -31.35658461      -5.69536441      -4.76701660      -5.53414758     -41.74881920
       -42.28681778     -10.24044041     -17.89551783     -17.88616579     -17.92816798     -17.84727760     -17.84514455     -41.69019187     -13.61482763     -41.76644824     -15.07971485      -8.89940127     -17.74089131     -17.74692561      -6.88638038      -8.89307949     -41.37476459     -42.05965468      -5.09592126      -4.14393306
       -41.96811187     -18.20969572     -25.53018411     -12.10987779     -16.01130507     -17.71861708     -17.72297944     -35.64307605      -4.18449999     -17.75791256     -17.73237917     -41.74006110     -41.77973835     -41.68604312     -42.31299864     -17.74253190     -10.59971135     -17.89862288     -17.69348335     -11.09051769
       -17.91151433      -7.50993598     -16.38475869     -41.60272137     -41.83478472     -13.82176231     -17.74182706      -5.67208409     -41.46575575     -41.34418592     -41.36433262     -41.89568928      -4.65651316      -4.21339289     -41.96417486     -41.79151226     -13.24050912     -23.16638033     -28.22535708     -17.72018341
       -17.73063150     -17.73514031     -17.75185742     -11.56812346      -8.16265726     -17.74840632     -41.42247175     -41.87931321      -6.16348184      -7.73306760     -11.75161815     -10.86627197      -6.15237837      -7.01055011      -5.19591541      -5.01173931      -5.22513946      -7.44997408      -4.78180070      -4.58964318
        -4.62725684      -4.54063657      -5.09574507      -4.90576663      -4.75245479      -4.64425264      -4.62138338      -5.47099977      -4.49948999      -5.36862941      -4.97058474      -5.46458154      -5.43083437      -4.95077966      -4.89336899      -5.06757360      -5.19069536      -4.95825146      -5.31662840      -5.07832964
        -5.17296321      -6.68381845      -7.01755439      -4.56413053      -4.73039455      -4.85416045      -4.72854327      -5.00865834      -4.91594187      -4.97116383      -4.90079183      -4.96262430      -5.21979297      -5.36604377      -5.47334382      -5.35722202      -5.48136880      -5.14625760      -4.50262448      -4.50045623
        -9.39665966      -8.85415801     -13.02636851     -11.23314269     -11.27624997     -14.88094568      -5.72054922      -7.93146173      -7.37763449     -12.81297673     -11.36097311     -10.09925482      -5.71111984      -6.65942268      -6.66737273      -7.00752739      -5.42139263      -5.47492699      -7.82734792      -6.99701585
        -4.52404391      -4.55630836      -5.19629379      -4.89337994      -4.79641790      -4.61188322      -4.42284253      -4.56566619      -5.71568241      -4.89107660      -5.05235725      -5.45112009      -6.60315282      -6.73620232      -4.69772477      -4.47376329      -4.94247856      -4.79400964      -5.23439955      -5.10699314
        -5.30731711      -4.63170463      -8.94429796      -5.63888954      -9.17119269     -14.20715330     -11.17519509     -11.91060428     -10.66846991     -14.95303153     -14.02584685      -5.47424563      -5.07061509      -5.38887888      -5.41088044      -5.55027563      -4.46011614      -4.55439466      -4.54674262      -4.70348122
        -5.28739661      -5.24387345      -4.98424561      -4.73335677      -4.83478535      -4.65096047      -4.41043516      -4.60233612      -5.62511568      -4.95561407      -5.11488725      -5.58842708      -5.34961157      -4.70918096      -4.55483239      -4.88030610      -4.83850204      -4.72637943      -5.57303978      -5.15460683
        -5.13666421      -5.10326721      -5.21835981      -5.23066029      -5.21924324      -5.44919469      -5.61202265      -9.84679008      -5.15278329      -5.54332571      -4.45962995      -4.82084585      -4.65678423      -4.64428218      -5.10885857      -5.57464082      -4.82997674      -5.41071904      -5.69840455      -4.98219518
        -5.25787588      -5.47919356      -4.70332311      -5.17597870      -4.70290649      -5.63561163      -5.79610388      -4.48479490      -5.38972961      -5.95091363      -5.44645794      -4.76961276      -5.45527052      -5.25989314      -5.26735010      -5.39946689      -5.89515440      -4.85790904      -4.51868023      -5.85628933
        -5.17325912      -5.65910229      -5.74794943      -4.40457650      -5.83858278      -5.35123306      -4.77843836      -5.58938258      -4.70626446      -5.90801038      -4.82572163      -4.46870804      -5.41842142      -7.35733719      -7.32300785     -15.23299753     -41.70072669     -21.42145994     -14.63884292     -14.65152038
       -41.89349295     -17.72783295      -6.91641860     -17.93150936     -17.88923022      -9.70855407     -17.74129449     -41.46532448      -7.04916364     -14.18190642      -7.53065898     -15.22441456      -7.73308013      -8.30775073     -15.85341641     -16.96136888     -17.29518783     -32.60094882     -29.26647889     -36.29547599
       -14.98857074     -13.38005429     -15.78442670     -15.23867131     -33.33941391     -33.81571514     -33.41043126      -5.73155633      -8.63369317     -11.63482123     -12.42428561      -7.68375404      -8.27685011      -4.48075725      -7.21792400      -4.72137513     -14.40795424      -9.64053384      -5.94924940      -6.16169912
        -9.46338417      -5.70002178      -6.11732039      -5.17441588      -5.81071003      -5.82378935      -5.76521901      -6.51221686      -4.39109752      -6.42833842      -6.16589843      -4.98712996      -4.61020394      -7.95822633      -4.62172635      -5.52941286      -5.55234892      -7.69960544     -15.85858285     -18.82525527
       -33.43879834     -35.33173119     -24.34084060     -26.80492665     -34.49519949     -37.95465634     -32.46555904     -15.93666109     -11.58195199     -12.19765458     -15.65666480     -16.40627682     -14.52965294     -13.85248076     -16.01379900     -29.74110554     -35.63403140     -36.29224749     -33.91556777     -17.39980720
       -33.63521761     -36.04056407      -6.70443220      -5.11868375      -8.83742224      -7.91591797     -13.93712825     -33.82115121     -34.16001180     -12.97581287     -15.19190381      -7.28509879      -4.30737183      -4.68221018      -6.66183991      -5.02604404      -6.69720117      -4.99857887     -12.00318411     -10.11674659
       -10.30170216      -5.85542464      -6.27611343      -8.44187213     -10.96978183      -6.68473953      -5.10334730      -5.44424013      -4.73984459      -5.99056010      -8.09239082      -6.25646695      -8.12828108     -14.55804448     -20.53753130     -36.61946875     -36.07433494     -36.50327076     -22.08516045     -24.46538147
       -37.89257362     -16.27876046     -10.60673602     -11.16287099     -16.41758041     -16.52958985     -12.66072420     -26.84806433     -37.13984223     -36.41258863     -16.27320729     -16.61079746     -36.13363252     -36.54710150      -4.91710657     -15.63873078     -36.33409408     -33.84797890     -33.86296455     -12.15040105
       -16.04715981      -4.39185424      -4.73589321      -7.24892837      -6.46793174      -5.61629591      -5.63147677      -4.84958982      -8.96652464      -6.23342567     -13.05323272     -14.92489645     -22.38821274     -20.22294935     -37.62774627     -37.04201032     -29.75014891     -16.31757279     -13.83000916      -9.44484373
       -10.22261875     -16.64991010     -12.95567791     -27.55851580     -37.20731338     -30.74391938     -36.63591113     -16.38950518     -16.42798049     -37.06617994     -36.36949447     -36.70390358     -16.30477964      -7.88197036     -10.52158361     -21.46517348     -32.03172305     -29.95261371     -16.31991776     -14.94600968
       -11.49618689     -16.69917301     -14.61321457     -33.19713387     -32.53605392     -16.59890812     -31.82675478     -13.89582089      -8.59256488      -7.84864087     -23.29934962     -16.32251599     -15.10087712     -10.77488203     -15.49374589     -28.56833468     -29.11454093     -32.95510034     -16.38386968     -14.45970846
        -8.30386358     -22.83086155     -14.93618018     -13.48563730     -10.08199639     -13.70676127     -15.08043279      -8.87647916     -13.22491361      -6.76540775      -5.75812480      -6.14902342      -6.16824304      -4.36648721      -6.41671226      -4.41793641      -4.81483886      -5.57691551     -32.33027320     -14.67908751
        -4.83518010      -6.02918938     -29.22176306     -19.56497761      -9.48591454     -32.08130251     -31.56293889      -5.60016705      -5.42835245      -6.71494114     -11.41275738     -14.35225754     -30.97207232     -31.98645034     -32.26875339     -25.85589285     -24.43041890     -15.86578283     -11.31603892     -14.91844800
        -7.09819272      -4.46598133      -7.39920499      -6.68410785      -4.35573281      -5.82863606      -6.19364134     -32.75875334     -21.16469957     -10.11360302     -29.59187598     -28.78978397     -27.93499581     -27.68308724      -5.77225908      -5.79746265      -5.15507247     -13.08728823     -27.94063470     -28.45524266
       -29.67275297     -28.29824553     -24.94910628     -13.77351469      -6.35106345      -4.30695205      -5.84328116     -30.71227014      -5.75548140      -6.08665432      -4.94654088      -5.92066771     -25.88938447     -31.15328481      -5.96119338      -6.22735758      -5.85800758      -6.03294282      -5.89285565      -5.87804317
        -9.70462651     -11.03507246      -7.93800095     -26.28989715     -11.64430239     -24.57182743     -28.05909945      -4.62038937     -20.05318528     -28.66243314      -6.01666034      -6.74746754      -6.68684566      -5.70822850      -7.99947873     -11.73067346     -24.83424427     -24.24102251      -4.57439730     -25.97786090
       -23.17242263      -7.28808413      -6.11102142      -9.99961525     -20.61283124     -23.36197787      -5.13966363      -8.07147731     -11.12836175      -5.72767718      -4.65616961      -4.92268322      -6.78633732      -4.79240479     -14.25563889     -14.02716882      -4.24115337     -30.87145751      -4.30392548     -13.08698433
        -9.95069015     -12.71611483     -15.89810844     -14.12354436     -11.63941049     -25.55063028     -30.91257352     -31.26710301      -7.23095223      -4.57833489     -11.16731316     -14.03450708      -4.42931833      -5.28077873     -22.44441995      -7.51561340      -8.62677305      -9.57817866      -9.59781999     -13.38402481
        -5.21603030      -6.38157754      -5.02326310      -5.40117873      -4.57530126     -15.40333162     -14.02383625      -4.34015048     -34.14413551      -4.51046595      -4.17643141     -11.50191158      -8.66990985     -10.68181758     -15.86770395     -13.62356435     -34.06397882     -11.87416842     -15.27665021      -9.96336435
       -14.07210666      -4.62422268      -5.88259912      -8.30860899      -9.09183779      -5.19038970      -5.44427799      -5.57994248      -5.87799944      -4.46800449      -4.39019398     -15.68848631     -15.27474245      -4.41432961     -25.39534445     -35.19632752      -4.56050633      -4.24061668      -7.55911813      -9.32766617
       -14.15973352     -28.42357819     -15.64131765     -11.61577073     -12.06946969     -15.29551855      -4.92067572      -4.62023375      -7.22666953      -8.78592320      -4.75455602      -5.44604016      -4.41741019     -13.01829942      -4.78519908     -29.73535919      -4.98292715      -6.63245028      -8.12888324     -11.41774730
       -24.27498363     -25.14503179     -13.51155958     -13.77028214     -13.04897501      -4.72574433      -7.43876862      -6.07134087      -4.35012068     -10.69948673     -11.53664342     -26.99439804      -7.08846055      -8.78426836     -12.45536415     -11.55982272      -5.00181453      -6.35841043      -4.43831539      -4.27513399
       -20.93093284     -27.37757210      -6.02055754      -9.65298425     -11.87669327     -10.20147054      -7.65037747      -5.03037445      -4.32326213     -23.88803733     -11.57128700      -7.26090968      -4.37556862     -20.50429654     -24.17350349      -8.95560634      -4.33123003      -4.26649942      -4.36259367     -13.44406881
        -7.68713506      -5.64898284      -9.55677723      -8.09568342      -7.40235659      -6.81862158     -21.15166264      -9.28293994     -12.54621129     -17.48083870      -5.79638161      -5.58669965      -6.84948964     -17.94734182     -17.28044081     -13.71210165     -22.90364885     -22.03000528     -12.61230785     -13.23257991
       -11.97949232      -9.40807883      -5.20452424      -6.10243368     -10.06481991      -9.47871800     -20.10671870     -18.56782691      -8.64108111      -9.30313863     -10.87536563      -7.49624382      -5.40439869     -15.98502980     -14.30288729     -16.32509831     -12.31600449      -6.32210864      -5.07436844      -9.48771989
       -10.36953909      -7.17582859      -6.23166028      -5.68853593      -6.87664546     -20.89323489     -11.79406228     -21.07684682      -9.26479085      -9.84911321      -8.12427628      -9.08300566      -5.13595919     -17.09862783      -7.66988881      -6.47674657      -5.48317664      -8.50542454      -6.01770412      -5.94303224
        -7.01119575      -6.01463163      -7.40008891      -7.96976443      -4.50984126      -7.13006862      -6.74588089      -7.85434245     -25.17487253     -21.52237231     -11.89288368     -10.26674495      -9.94110166     -10.75131892     -10.28259075     -20.91427767      -5.27414506     -19.75280109     -13.85123279     -16.20083971
       -11.19272436     -12.08041915     -14.07935722     -15.73291904     -16.22360423     -10.53764253      -8.86077873      -7.43439527      -8.22306513      -8.83167336     -19.08290873     -14.21832235      -7.23696223      -5.63883718      -5.76239614      -5.56098197      -6.07072734     -10.09667912      -9.34749291      -7.05322944
        -8.55345988      -8.87804856     -18.84428816     -17.44417408     -14.99162993     -14.31425528     -14.39977923     -16.96333394     -16.13643282      -5.97907063      -5.62066358      -5.18367530      -8.35932105      -9.54369906      -8.39479101      -8.17800870     -18.99781246     -18.00395126     -17.35330671     -17.69208686
       -20.23801443     -14.07116380     -23.38137563     -21.62169241     -18.71566004     -14.79144047     -15.47540995     -13.66917334     -12.49179725     -12.87620516     -10.84906987     -10.72376784     -12.31076459     -10.73497124      -9.32328694      -9.42814292     -25.77554406      -5.94664984      -5.81304629      -6.91795718
        -6.72036120      -5.79181457     -24.76681347     -21.81521008     -12.41717256     -18.58861772     -26.13707788     -14.59314744     -16.00947014     -11.01497681     -10.78448064      -8.64580201      -7.68654397      -7.98144472     -10.73022238      -7.04818459      -9.72861358      -9.49943991     -11.06313830      -7.05401353
        -6.42493493      -6.12162161      -5.44236232      -5.50382495      -5.38954865      -4.80745724      -4.99343371      -5.01042616      -4.91284879      -5.41500886      -4.92529571      -5.67575979      -6.32494499      -5.12600269      -5.25825079      -5.37398866     -17.93770266      -6.67535447      -6.47271934      -6.12884734
        -8.01140631      -9.05213529      -9.59582017      -9.48799824      -7.59309558     -10.66528671     -16.48102427     -19.99988043     -15.35788449     -11.90722401      -6.74957734      -7.92728742      -6.95662823      -5.61933431      -5.70860928      -6.31685768      -7.34974490     -10.70223477      -8.37780886      -9.19349413
       -19.50000000     -17.12983558     -15.22988065     -13.56274705     -12.09796145     -10.81238769      -9.69067677      -8.69659521      -7.81869187      -7.05843489      -6.41667588      -5.87647910      -5.43893964      -5.09872030      -4.85290571      -4.70233212      -4.64785613      -4.68473922      -4.80747405      -5.01926587
        -5.32292541      -5.71807089      -6.20888706      -6.80653925      -7.51279617      -8.35715014      -9.33952531     -10.45312269     -11.69980141     -13.08929998     -14.63034514     -16.31518192     -18.15774981     -20.21224693     -22.51397886     -25.13533429     -28.17284644     -31.76241908     -36.18129273     -42.00691738
       -49.58668133     -49.59883499     -49.63418578     -49.68987628     -49.75447222     -49.79557086     -49.82186414     -49.84545580     -49.84992278     -49.85066630     -49.10273526     -49.10273497     -49.10273468     -49.10273427     -49.10273381     -49.10273314     -49.10273183     -49.10273311     -49.10273465     -49.10273602
       -49.90640832     -49.92591327     -49.92692747     -49.92158579     -49.92656073     -49.94358332     -49.94720667     -49.95622771     -49.96898756     -49.97908633     -49.97207017     -49.96461026     -49.97008303     -49.10273373     -49.10273346     -49.10273353     -49.10273377     -49.10273425     -49.10273531     -49.10273633
       -49.10273687     -39.03453155     -33.11355813     -28.89480074     -25.39329805     -22.42011921     -19.82324212     -17.57294855     -15.64772040     -13.88647306     -12.34779425     -10.96639771      -9.73226595      -8.64083376      -7.68639720      -6.85886442      -6.14733090      -5.54771478      -5.06124427      -4.68737086
        -4.42046736      -4.26144017      -4.19892143      -4.19288243      -4.26720684      -4.43075935      -4.68754213      -5.03871502      -5.48322404      -6.02003803      -6.64499817      -7.34320996      -8.16064680      -9.11609829     -10.19536409     -11.40321250     -12.73690353     -14.18452459     -15.67797549     -17.30426054
       -19.50000000     -19.50000000     -19.50000000     -19.50000000     -19.50000000     -19.50000000     -19.50000000     -19.50000000     -19.50000000     -19.50000000     -19.50000000     -19.50000000     -19.50000000     -19.50000000     -19.50000000     -19.50000000     -19.50000000     -19.50000000     -19.50000000     -19.50000000
       -19.50000000     -19.50000000     -19.50000000     -19.50000000     -19.50000000     -19.50000000     -19.50000000     -19.50000000     -19.50000000     -19.50000000     -19.50000000     -19.50000000     -19.50000000     -19.50000000     -19.50000000     -19.50000000     -19.50000000     -19.50000000     -19.50000000     -19.50000000
       -17.83936903     -44.46151249     -41.57660938     -17.94269924      -4.73456901      -4.77774599      -4.86103740      -4.96428518      -5.04923609      -5.07263468      -5.01732976      -4.91013609      -4.80412300      -4.74129403      -4.63990262      -4.72946915      -4.86315342      -5.05666618      -5.24510827      -5.30810065
        -5.18609928      -4.94712003      -4.73215312      -4.62974379      -4.87556915      -4.89437431      -4.85784539      -4.79033948      -4.71795224      -4.65852547      -4.62850323      -4.64434364      -4.71052077      -4.80266396      -5.04725502      -5.07274541      -4.97914107      -4.84373337      -4.71933733      -4.61474575
        -4.54684299      -4.55456706      -4.68359146      -4.88772354      -5.09055515      -5.16205464      -5.23907141      -5.30528332      -5.33609267      -5.30710015      -5.22335112      -5.12094774      -5.05115299      -5.04499725      -5.05252776      -5.18223547      -5.30993254      -5.44100910      -5.53074083      -5.49467642
        -5.33331420      -5.10402331      -4.94080189      -4.94746821      -5.33484253      -5.37114736      -5.34490028      -5.27426335      -5.18799487      -5.11062359      -5.06438886      -5.07199417      -5.14061484      -5.24458582      -5.50535652      -5.56710387      -5.49803265      -5.35336160      -5.19914090      -5.05950788
        -4.95679111      -4.95202880      -5.08822271      -5.31465470      -5.82205140      -5.89141588      -6.08295154      -6.33605488      -6.55351586      -6.64033820      -6.55550684      -6.33952692      -6.08667228      -5.89377649      -4.55912365      -4.52553691      -4.50956831      -4.52980187      -4.57978900      -4.62920248
        -4.65117952      -4.64300195      -4.61949836      -4.59161962     -10.74197516     -10.56529187     -10.19760955      -9.79725193      -9.51737566      -9.44661776      -9.59998680      -9.92879175     -10.32752532     -10.64621699      -6.94299736      -7.05726232      -7.23873785      -7.43224098      -7.56931297      -7.58497206
        -7.46112096      -7.25101223      -7.04931926      -6.93601063     -14.02708365     -13.79154054     -13.25620196     -12.64697487     -12.19400420     -12.04794744     -12.25429953     -12.74695860     -13.35880253     -13.85609341      -4.88042196      -4.74603563      -5.17456938      -5.20273312      -6.20737726      -4.57192954
       -10.06333733      -7.23932597     -12.99810538      -5.26577614     -42.07130101      -4.44320444     -17.82860998     -14.03433010      -6.19320970     -42.30980820     -11.89644147     -17.99239309      -8.14913035     -27.97580156      -4.64070156     -42.85606412     -41.80774228      -6.75393537     -17.92173868     -10.70367370
       -19.73577745     -34.44504748      -4.69099082     -43.80349581     -42.52053040     -41.80126151      -5.27117383     -17.85281052     -12.26278375     -16.68280525     -23.42221355     -30.92471595     -38.97787213      -4.90896657     -44.23312433     -43.29554909     -42.68995825     -42.35484811     -41.69574245      -4.77993509
       -17.84007632     -41.96262916      -6.43608625     -17.80317918     -10.23097762     -21.08846780     -17.96516560      -6.37434379      -5.13527404     -41.77218669      -8.92522893     -17.95577957      -9.33633368      -4.60113299     -41.75554238      -5.93071690     -17.89814592     -25.57859004     -18.14056756      -7.86389368
       -17.82823696     -12.68459693     -42.19270928     -41.77985691      -4.40035429     -41.41032939     -41.86020908     -15.83836974     -17.92014013     -17.98599204      -7.17016831      -7.74569579     -17.94115376     -17.82455380     -14.58490808     -31.42051913      -5.75093677      -4.82073532      -5.58857353     -41.81275208
       -42.35074909     -10.30590157     -17.97486360     -17.96031557     -17.99565649     -17.91660787     -17.92218796     -41.75412657     -13.70909227     -41.83037851     -15.16920172      -8.95598187     -17.82844037     -17.82360262      -6.94521463      -8.95626718     -41.43869698     -42.12358785      -5.14519533      -4.19334089
       -42.03204162     -18.27932030     -25.59411900     -12.18680880     -16.11305721     -17.81708404     -17.82163785     -35.70701042      -4.23198045     -17.83510681     -17.82370882     -41.80399329     -41.84367147     -41.74997587     -42.37692916     -17.82893406     -10.66319970     -17.97216715     -17.79734455     -11.16062947
       -17.98512799      -7.56622525     -16.47796262     -41.66665181     -41.89871434     -13.91313255     -17.82199344      -5.72266404     -41.52968923     -41.40811750     -41.42826567     -41.95962163      -4.70466116      -4.26198601     -42.02810405     -41.85544191     -13.32341987     -23.23031522     -28.28929167     -17.81816041
       -17.82852611     -17.83097280     -17.83368607     -11.63593129      -8.21379119     -17.82569055     -41.48640509     -41.94324608      -6.21632962      -7.78715484     -11.82618957     -10.93079427      -6.20573579      -7.06482162      -5.24660965      -5.06225282      -5.27544926      -7.50354427      -4.83106185      -4.63202708