# File generated by Flopy version 3.4.1 on 09/12/2024 at 06:51:20.
BEGIN options
  PRINT_INPUT
  PRINT_FLOWS
  SAVE_FLOWS
END options

BEGIN dimensions
  MAXBOUND  8
END dimensions

BEGIN period  1
  5361   -1000.00000000
  6559   -1000.00000000
  5362   -1000.00000000
  6560   -1000.00000000
  5363   -1000.00000000
  6561   -1000.00000000
  5364   -1000.00000000
  6562   -1000.00000000
END period  1

