# File generated by Flopy version 3.4.1 on 07/22/2024 at 09:17:48.
BEGIN options
  BUDGET  FILEOUT  run.bud
  HEAD  FILEOUT  run.hds
END options

BEGIN period  1
  SAVE  HEAD  LAST
END period  1

