# File generated by Flopy version 3.4.1 on 09/12/2024 at 06:51:19.
BEGIN options
  SAVE_FLOWS
  XT3D
  SAVE_SPECIFIC_DISCHARGE
END options

BEGIN griddata
  icelltype
    CONSTANT  1
  k
    INTERNAL  FACTOR  1.0
         1.32799370       1.32799370       1.32799370       1.32799370       1.32799370       1.32799370       1.32799370       1.32799370       1.32799370       1.32799370       1.32799370       1.32799370       1.32799370       1.32799370       1.32799370       1.32799370       1.32799370       1.32799370       1.32799370       1.32799370
         1.32799370       1.32799370       1.32799370       1.32799370       1.32799370       1.32799370       1.32799370       1.32799370       1.32799370       1.32799370       1.32799370       1.32799370       1.32799370       1.32799370       1.32799370       1.32799370       1.32799370       1.32799370       1.32799370       1.32799370
         1.32799370       1.32799370       1.32799370       1.32799370       1.32799370       1.32799370       1.32799370       1.32799370       1.32799370       1.32799370       1.32799370       1.32799370       1.32799370       1.32799370       1.32799370       1.32799370       1.32799370       1.32799370       1.32799370       1.32799370
         1.32799370       1.32799370       1.32799370       1.32799370       1.32799370       1.32799370       1.32799370       1.32799370       1.32799370       1.32799370       1.32799370       1.32799370       1.32799370       1.32799370       1.32799370       1.32799370       1.32799370       1.32799370       1.32799370       1.32799370
         1.32799370       1.32799370       1.32799370       1.32799370       1.32799370       1.32799370       1.32799370       1.32799370       1.32799370       1.32799370       1.32799370       1.32799370       1.32799370       1.32799370       1.32799370       1.32799370       1.32799370       1.32799370       1.32799370       1.32799370
         1.32799370       1.32799370       1.32799370       1.32799370       1.32799370       1.32799370       1.32799370       1.32799370       1.32799370       1.32799370       1.32799370       1.32799370       1.32799370       1.32799370       1.32799370       1.32799370       1.32799370       1.32799370       1.32799370       1.32799370
         1.32799370       1.32799370       1.32799370       1.32799370       1.32799370       1.32799370       1.32799370       1.32799370       1.32799370       1.32799370       1.32799370       1.32799370       1.32799370       1.32799370       1.32799370       1.32799370       1.32799370       1.32799370       1.32799370       1.32799370
         1.32799370       1.32799370       1.32799370       1.32799370       1.32799370       1.32799370       1.32799370       1.32799370       1.32799370       1.32799370       1.32799370       1.32799370       1.32799370       1.32799370       1.32799370       1.32799370       1.32799370       1.32799370       1.32799370       1.32799370
         1.32799370       1.32799370       1.32799370       1.32799370       1.32799370       1.32799370       1.32799370       1.32799370       1.32799370       1.32799370       1.32799370       1.32799370       1.32799370       1.32799370       1.32799370       1.32799370       1.32799370       1.32799370       1.32799370       1.32799370
         1.32799370       1.32799370       1.32799370       1.32799370       1.32799370       1.32799370       1.32799370       1.32799370       1.32799370       1.32799370       1.32799370       1.32799370       1.32799370       1.32799370       1.32799370       1.32799370       1.32799370       1.32799370       1.32799370       1.32799370
         1.32799370       1.32799370       1.32799370       1.32799370       1.32799370       1.32799370       1.32799370       1.32799370       1.32799370       1.32799370       1.32799370       1.32799370       1.32799370       1.32799370       1.32799370       1.32799370       1.32799370       1.32799370       1.32799370       1.32799370
         1.32799370       1.32799370       1.32799370       1.32799370       1.32799370       1.32799370       1.32799370       1.32799370       1.32799370       1.32799370       1.32799370       1.32799370       1.32799370       1.32799370       1.32799370       1.32799370       1.32799370       1.32799370       1.32799370       1.32799370
         1.32799370       1.32799370       1.32799370       1.32799370       1.32799370       1.32799370       1.32799370       1.32799370       1.32799370       1.32799370       1.32799370       1.32799370       1.32799370       1.32799370       1.32799370       1.32799370       1.32799370       1.32799370       1.32799370       1.32799370
         1.32799370       1.32799370       1.32799370       1.32799370       1.32799370       1.32799370       1.32799370       1.32799370       1.32799370       1.32799370       1.32799370       1.32799370       1.32799370       1.32799370       1.32799370       1.32799370       1.32799370       1.32799370       1.32799370       1.32799370
         1.32799370       1.32799370       1.32799370       1.32799370       1.32799370       1.32799370       1.32799370       1.32799370       1.32799370       1.32799370       1.32799370       1.32799370       1.32799370       1.32799370       1.32799370       1.32799370       1.32799370       1.32799370       1.32799370       1.32799370
         1.32799370       1.32799370       1.32799370       1.32799370       1.32799370       1.32799370       1.32799370       1.32799370       1.32799370       1.32799370       1.32799370       1.32799370       1.32799370       1.32799370       1.32799370       1.32799370       1.32799370       1.32799370       1.32799370       1.32799370
         1.32799370       1.32799370       1.32799370       1.32799370       1.32799370       1.32799370       1.32799370       1.32799370       1.32799370       1.32799370       1.32799370       1.32799370       1.32799370       1.32799370       1.32799370       1.32799370       1.32799370       1.32799370       1.32799370       1.32799370
         1.32799370       1.32799370       1.32799370       1.32799370       1.32799370       1.32799370       1.32799370       1.32799370       1.32799370       1.32799370       1.32799370       1.32799370       1.32799370       1.32799370       1.32799370       1.32799370       1.32799370       1.32799370       1.32799370       1.32799370
         1.32799370       1.32799370       1.32799370       1.32799370       1.32799370       1.32799370       1.32799370       1.32799370       1.32799370       1.32799370       1.32799370       1.32799370       1.32799370       1.32799370       1.32799370       1.32799370       1.32799370       1.32799370       1.32799370       1.32799370
         1.32799370       1.32799370       1.32799370       1.32799370       1.32799370       1.32799370       1.32799370       1.32799370       1.32799370       1.32799370       1.32799370       1.32799370       1.32799370       1.32799370       1.32799370       1.32799370       1.32799370       1.32799370       1.32799370       1.32799370
         1.32799370       1.32799370       1.32799370       1.32799370       1.32799370       1.32799370       1.32799370       1.32799370       1.32799370       1.32799370       1.32799370       1.32799370       1.32799370       1.32799370       1.32799370       1.32799370       1.32799370       1.32799370       1.32799370       1.32799370
         1.32799370       1.32799370       1.32799370       1.32799370       1.32799370       1.32799370       1.32799370       1.32799370       1.32799370       1.32799370       1.32799370       1.32799370       1.32799370       1.32799370       1.32799370       1.32799370       1.32799370       1.32799370       1.32799370       1.32799370
         1.32799370       1.32799370       1.32799370       1.32799370       1.32799370       1.32799370       1.32799370       1.32799370       1.32799370       1.32799370       1.32799370       1.32799370       1.32799370       1.32799370       1.32799370       1.32799370       1.32799370       1.32799370       1.32799370       1.32799370
         1.32799370       1.32799370       1.32799370       1.32799370       1.32799370       1.32799370       1.32799370       1.32799370       1.32799370       1.32799370       1.32799370       1.32799370       1.32799370       1.32799370       1.32799370       1.32799370       1.32799370       1.32799370       1.32799370       1.32799370
         1.32799370       1.32799370       1.32799370       1.32799370       1.32799370       1.32799370       1.32799370       1.32799370       1.32799370       1.32799370       1.32799370       1.32799370       1.32799370       1.32799370       1.32799370       1.32799370       1.32799370       1.32799370       1.32799370       1.32799370
         1.32799370       1.32799370       1.32799370       1.32799370       1.32799370       1.32799370       1.32799370       1.32799370       1.32799370       1.32799370       1.32799370       1.32799370       1.32799370       1.32799370       1.32799370       1.32799370       1.32799370       1.32799370       1.32799370       1.32799370
         1.32799370       1.32799370       1.32799370       1.32799370       1.32799370       1.32799370       1.32799370       1.32799370       1.32799370       1.32799370       1.32799370       1.32799370       1.32799370       1.32799370       1.32799370       1.32799370       1.32799370       1.32799370       1.32799370       1.32799370
         1.32799370       1.32799370       1.32799370       1.32799370       1.32799370       1.32799370       1.32799370       1.32799370       1.32799370       1.32799370       1.32799370       1.32799370       1.32799370       1.32799370       1.32799370       1.32799370       1.32799370       1.32799370       1.32799370       1.32799370
         1.32799370       1.32799370       1.32799370       1.32799370       1.32799370       1.32799370       1.32799370       1.32799370       1.32799370       1.32799370       1.32799370       1.32799370       1.32799370       1.32799370       1.32799370       1.32799370       1.32799370       1.32799370       1.32799370       1.32799370
         1.32799370       1.32799370       1.32799370       1.32799370       1.32799370       1.32799370       1.32799370       1.32799370       1.32799370       1.32799370       1.32799370       1.32799370       1.32799370       1.32799370       1.32799370       1.32799370       1.32799370       1.32799370       1.32799370       1.32799370
         1.32799370       1.32799370       1.32799370       1.32799370       1.32799370       1.32799370       1.32799370       1.32799370       1.32799370       1.32799370       1.32799370       1.32799370       1.32799370       1.32799370       1.32799370       1.32799370       1.32799370       1.32799370       1.32799370       1.32799370
         1.32799370       1.32799370       1.32799370       1.32799370       1.32799370       1.32799370       1.32799370       1.32799370       1.32799370       1.32799370       1.32799370       1.32799370       1.32799370       1.32799370       1.32799370       1.32799370       1.32799370       1.32799370       1.32799370       1.32799370
         1.32799370       1.32799370       1.32799370       1.32799370       1.32799370       1.32799370       1.32799370       1.32799370       1.32799370       1.32799370       1.32799370       1.32799370       1.32799370       1.32799370       1.32799370       1.32799370       1.32799370       1.32799370       1.32799370       1.32799370
         1.32799370       1.32799370       1.32799370       1.32799370       1.32799370       1.32799370       1.32799370       1.32799370       1.32799370       1.32799370       1.32799370       1.32799370       1.32799370       1.32799370       1.32799370       1.32799370       1.32799370       1.32799370       1.32799370       1.32799370
         1.32799370       1.32799370       1.32799370       1.32799370       1.32799370       1.32799370       1.32799370       1.32799370       1.32799370       1.32799370       1.32799370       1.32799370       1.32799370       1.32799370       1.32799370       1.32799370       1.32799370       1.32799370       1.32799370       1.32799370
         1.32799370       1.32799370       1.32799370       1.32799370       1.32799370       1.32799370       1.32799370       1.32799370       1.32799370       1.32799370       1.32799370       1.32799370       1.32799370       1.32799370       1.32799370       1.32799370       1.32799370       1.32799370       1.32799370       1.32799370
         1.32799370       1.32799370       1.32799370       1.32799370       1.32799370       1.32799370       1.32799370       1.32799370       1.32799370       1.32799370       1.32799370       1.32799370       1.32799370       1.32799370       1.32799370       1.32799370       1.32799370       1.32799370       1.32799370       1.32799370
         1.32799370       1.32799370       1.32799370       1.32799370       1.32799370       1.32799370       1.32799370       1.32799370       1.32799370       1.32799370       1.32799370       1.32799370       1.32799370       1.32799370       1.32799370       1.32799370       1.32799370       1.32799370       1.32799370       1.32799370
         1.32799370       1.32799370       1.32799370       1.32799370       1.32799370       1.32799370       1.32799370       1.32799370       1.32799370       1.32799370       1.32799370       1.32799370       1.32799370       1.32799370       1.32799370       1.32799370       1.32799370       1.32799370       1.32799370       1.32799370
         1.32799370       1.32799370       1.32799370       1.32799370       1.32799370       1.32799370       1.32799370       1.32799370       1.32799370       1.32799370       1.32799370       1.32799370       1.32799370       1.32799370       1.32799370       1.32799370       1.32799370       1.32799370       1.32799370       1.32799370
         1.32799370       1.32799370       1.32799370       1.32799370       1.32799370       1.32799370       1.32799370       1.32799370       1.32799370       1.32799370       1.32799370       1.32799370       1.32799370       1.32799370       1.32799370       1.32799370       1.32799370       1.32799370       1.32799370       1.32799370
         1.32799370       1.32799370       1.32799370       1.32799370       1.32799370       1.32799370       1.32799370       1.32799370       1.32799370       1.32799370       1.32799370       1.32799370       1.32799370       1.32799370       1.32799370       1.32799370       1.32799370       1.32799370       1.32799370       1.32799370
         1.32799370       1.32799370       1.32799370       1.32799370       1.32799370       1.32799370       1.32799370       1.32799370       1.32799370       1.32799370       1.32799370       1.32799370       1.32799370       1.32799370       1.32799370       1.32799370       1.32799370       1.32799370       1.32799370       1.32799370
         1.32799370       1.32799370       1.32799370       1.32799370       1.32799370       1.32799370       1.32799370       1.32799370       1.32799370       1.32799370       1.32799370       1.32799370       1.32799370       1.32799370       1.32799370       1.32799370       1.32799370       1.32799370       1.32799370       1.32799370
         1.32799370       1.32799370       1.32799370       1.32799370       1.32799370       1.32799370       1.32799370       1.32799370       1.32799370       1.32799370       1.32799370       1.32799370       1.32799370       1.32799370       1.32799370       1.32799370       1.32799370       1.32799370       1.32799370       1.32799370
         1.32799370       1.32799370       1.32799370       1.32799370       1.32799370       1.32799370       1.32799370       1.32799370       1.32799370       1.32799370       1.32799370       1.32799370       1.32799370       1.32799370       1.32799370       1.32799370       1.32799370       1.32799370       1.32799370       1.32799370
         1.32799370       1.32799370       1.32799370       1.32799370       1.32799370       1.32799370       1.32799370       1.32799370       1.32799370       1.32799370       1.32799370       1.32799370       1.32799370       1.32799370       1.32799370       1.32799370       1.32799370       1.32799370       1.32799370       1.32799370
         1.32799370       1.32799370       1.32799370       1.32799370       1.32799370       1.32799370       1.32799370       1.32799370       1.32799370       1.32799370       1.32799370       1.32799370       1.32799370       1.32799370       1.32799370       1.32799370       1.32799370       1.32799370       1.32799370       1.32799370
         1.32799370       1.32799370       1.32799370       1.32799370       1.32799370       1.32799370       1.32799370       1.32799370       1.32799370       1.32799370       1.32799370       1.32799370       1.32799370       1.32799370       1.32799370       1.32799370       1.32799370       1.32799370       1.32799370       1.32799370
         1.32799370       1.32799370       1.32799370       1.32799370       1.32799370       1.32799370       1.32799370       1.32799370       1.32799370       1.32799370       1.32799370       1.32799370       1.32799370       1.32799370       1.32799370       1.32799370       1.32799370       1.32799370       1.32799370       1.32799370
         1.32799370       1.32799370       1.32799370       1.32799370       1.32799370       1.32799370       1.32799370       1.32799370       1.32799370       1.32799370       1.32799370       1.32799370       1.32799370       1.32799370       1.32799370       1.32799370       1.32799370       1.32799370       1.32799370       1.32799370
         1.32799370       1.32799370       1.32799370       1.32799370       1.32799370       1.32799370       1.32799370       1.32799370       1.32799370       1.32799370       1.32799370       1.32799370       1.32799370       1.32799370       1.32799370       1.32799370       1.32799370       1.32799370       1.32799370       1.32799370
         1.32799370       1.32799370       1.32799370       1.32799370       1.32799370       1.32799370       1.32799370       1.32799370       1.32799370       1.32799370       1.32799370       1.32799370       1.32799370       1.32799370       1.32799370       1.32799370       1.32799370       1.32799370       1.32799370       1.32799370
         1.32799370       1.32799370       1.32799370       1.32799370       1.32799370       1.32799370       1.32799370       1.32799370       1.32799370       1.32799370       1.32799370       1.32799370       1.32799370       1.32799370       1.32799370       1.32799370       1.32799370       1.32799370       1.32799370       1.32799370
         1.32799370       1.32799370       1.32799370       1.32799370       1.32799370       1.32799370       1.32799370       1.32799370       1.32799370       1.32799370       1.32799370       1.32799370       1.32799370       1.32799370       1.32799370       1.32799370       1.32799370       1.32799370       1.32799370       1.32799370
         1.32799370       1.32799370       1.32799370       1.32799370       1.32799370       1.32799370       1.32799370       1.32799370       1.32799370       1.32799370       1.32799370       1.32799370       1.32799370       1.32799370       1.32799370       1.32799370       1.32799370       1.32799370       1.32799370       1.32799370
         1.32799370       1.32799370       1.32799370       1.32799370       1.32799370       1.32799370       1.32799370       1.32799370       1.32799370       1.32799370       1.32799370       1.32799370       1.32799370       1.32799370       1.32799370       1.32799370       1.32799370       1.32799370       1.32799370       1.32799370
         1.32799370       1.32799370       1.32799370       1.32799370       1.32799370       1.32799370       1.32799370       1.32799370       1.32799370       1.32799370       1.32799370       1.32799370       1.32799370       1.32799370       1.32799370       1.32799370       1.32799370       1.32799370       1.32799370       1.32799370
         1.32799370       1.32799370       1.32799370       1.32799370       1.32799370       1.32799370       1.32799370       1.32799370       1.32799370       1.32799370       1.32799370       1.32799370       1.32799370       1.32799370       1.32799370       1.32799370       1.32799370       1.32799370       1.32799370       1.32799370
         1.32799370       1.32799370       1.32799370       1.32799370       1.32799370       1.32799370       1.32799370       1.32799370       1.32799370       1.32799370       1.32799370       1.32799370       1.32799370       1.32799370       1.32799370       1.32799370       1.32799370       1.32799370       1.32799370       1.32799370
         1.32799370       1.32799370       1.32799370       1.32799370       1.32799370       1.32799370       1.32799370       1.32799370       1.32799370       1.32799370       1.32799370       1.32799370       1.32799370       1.32799370       1.32799370       1.32799370       1.32799370       1.32799370       1.32799370       1.32799370
         1.32799370       1.32799370       1.32799370       1.32799370       1.32799370       1.32799370       1.32799370       1.32799370       1.32799370       1.32799370       1.32799370       1.32799370       1.32799370       1.32799370       1.32799370       1.32799370       1.32799370       1.32799370       1.32799370       1.32799370
         1.32799370       1.32799370       1.32799370       1.32799370       1.32799370       1.32799370       1.32799370       1.32799370       1.32799370       1.32799370       1.32799370       1.32799370       1.32799370       1.32799370       1.32799370       1.32799370       1.32799370       1.32799370       1.32799370       1.32799370
         1.32799370       1.32799370       1.32799370       1.32799370       1.32799370       1.32799370       1.32799370       1.32799370       1.32799370       1.32799370       1.32799370       1.32799370       1.32799370       1.32799370       1.32799370       1.32799370       1.32799370       1.32799370       1.32799370       1.32799370
         1.32799370       1.32799370       1.32799370       1.32799370       1.32799370       1.32799370       1.32799370       1.32799370       1.32799370       1.32799370       1.32799370       1.32799370       1.32799370       1.32799370       1.32799370       1.32799370       1.32799370       1.32799370       1.32799370       1.32799370
         1.32799370       1.32799370       1.32799370       1.32799370       1.32799370       1.32799370       1.32799370       1.32799370       1.32799370       1.32799370       1.32799370       1.32799370       1.32799370       1.32799370       1.32799370       1.32799370       1.32799370       1.32799370       1.32799370       1.32799370
         1.32799370       1.32799370       1.32799370       1.32799370       1.32799370       1.32799370       1.32799370       1.32799370       1.32799370       1.32799370       1.32799370       1.32799370       1.32799370       1.32799370       1.32799370       1.32799370       1.32799370       1.32799370       1.32799370       1.32799370
         1.32799370       1.32799370       1.32799370       1.32799370       1.32799370       1.32799370       1.32799370       1.32799370       1.32799370       1.32799370       1.32799370       1.32799370       1.32799370       1.32799370       1.32799370       1.32799370       1.32799370       1.32799370       1.32799370       1.32799370
         1.32799370       1.32799370       1.32799370       1.32799370       1.32799370       1.32799370       1.32799370       1.32799370       1.32799370       1.32799370       1.32799370       1.32799370       1.32799370       1.32799370       1.32799370       1.32799370       1.32799370       1.32799370       1.32799370       1.32799370
         1.32799370       1.32799370       1.32799370       1.32799370       1.32799370       1.32799370       1.32799370       1.32799370       1.32799370       1.32799370       1.32799370       1.32799370       1.32799370       1.32799370       1.32799370       1.32799370       1.32799370       1.32799370       1.32799370       1.32799370
         1.32799370       1.32799370       1.32799370       1.32799370       1.32799370       1.32799370       1.32799370       1.32799370       1.32799370       1.32799370       1.32799370       1.32799370       1.32799370       1.32799370       1.32799370       1.32799370       1.32799370       1.32799370       1.32799370       1.32799370
         1.32799370       1.32799370       1.32799370       1.32799370       1.32799370       1.32799370       1.32799370       1.32799370       1.32799370       1.32799370       1.32799370       1.32799370       1.32799370       1.32799370       1.32799370       1.32799370       1.32799370       1.32799370       1.32799370       1.32799370
         1.32799370       1.32799370       1.32799370       1.32799370       1.32799370       1.32799370       1.32799370       1.32799370       1.32799370       1.32799370       1.32799370       1.32799370       1.32799370       1.32799370       1.32799370       1.32799370       1.32799370       1.32799370       1.32799370       1.32799370
         1.32799370       1.32799370       1.32799370       1.32799370       1.32799370       1.32799370       1.32799370       1.32799370       1.32799370       1.32799370       1.32799370       1.32799370       1.32799370       1.32799370       1.32799370       1.32799370       1.32799370       1.32799370       1.32799370       1.32799370
         1.32799370       1.32799370       1.32799370       1.32799370       1.32799370       1.32799370       1.32799370       1.32799370       1.32799370       1.32799370       1.32799370       1.32799370       1.32799370       1.32799370       1.32799370       1.32799370       1.32799370       1.32799370       1.32799370       1.32799370
         1.32799370       1.32799370       1.32799370       1.32799370       1.32799370       1.32799370       1.32799370       1.32799370       1.32799370       1.32799370       1.32799370       1.32799370       1.32799370       1.32799370       1.32799370       1.32799370       1.32799370       1.32799370       1.32799370       1.32799370
         1.32799370       1.32799370       1.32799370       1.32799370       1.32799370       1.32799370       1.32799370       1.32799370       1.32799370       1.32799370       1.32799370       1.32799370       1.32799370       1.32799370       1.32799370       1.32799370       1.32799370       1.32799370       1.32799370       1.32799370
         1.32799370       1.32799370       1.32799370       1.32799370       1.32799370       1.32799370       1.32799370       1.32799370       1.32799370       1.32799370       1.32799370       1.32799370       1.32799370       1.32799370       1.32799370       1.32799370       1.32799370       1.32799370       1.32799370       1.32799370
         1.32799370       1.32799370       1.32799370       1.32799370       1.32799370       1.32799370       1.32799370       1.32799370       1.32799370       1.32799370       1.32799370       1.32799370       1.32799370       1.32799370       1.32799370       1.32799370       1.32799370       1.32799370       1.32799370       1.32799370
         1.32799370       1.32799370       1.32799370       1.32799370       1.32799370       1.32799370       1.32799370       1.32799370       1.32799370       1.32799370       1.32799370       1.32799370       1.32799370       1.32799370       1.32799370       1.32799370       1.32799370       1.32799370       1.32799370       1.32799370
         1.32799370       1.32799370       1.32799370       1.32799370       1.32799370       1.32799370       1.32799370       1.32799370       1.32799370       1.32799370       1.32799370       1.32799370       1.32799370       1.32799370       1.32799370       1.32799370       1.32799370       1.32799370       1.32799370       1.32799370
         1.32799370       1.32799370       1.32799370       1.32799370       1.32799370       1.32799370       1.32799370       1.32799370       1.32799370       1.32799370       1.32799370       1.32799370       1.32799370       1.32799370       1.32799370       1.32799370       1.32799370       1.32799370       1.32799370       1.32799370
         1.32799370       1.32799370       1.32799370       1.32799370       1.32799370       1.32799370       1.32799370       1.32799370       1.32799370       1.32799370       1.32799370       1.32799370       1.32799370       1.32799370       1.32799370       1.32799370       1.32799370       1.32799370       1.32799370       1.32799370
         1.32799370       1.32799370       1.32799370       1.32799370       1.32799370       1.32799370       1.32799370       1.32799370       1.32799370       1.32799370       1.32799370       1.32799370       1.32799370       1.32799370       1.32799370       1.32799370       1.32799370       1.32799370       1.32799370       1.32799370
         1.32799370       1.32799370       1.32799370       1.32799370       1.32799370       1.32799370       1.32799370       1.32799370       1.32799370       1.32799370       1.32799370       1.32799370       1.32799370       1.32799370       1.32799370       1.32799370       1.32799370       1.32799370       1.32799370       1.32799370
         1.32799370       1.32799370       1.32799370       1.32799370       1.32799370       1.32799370       1.32799370       1.32799370       1.32799370       1.32799370       1.32799370       1.32799370       1.32799370       1.32799370       1.32799370       1.32799370       1.32799370       1.32799370       1.32799370       1.32799370