# File generated by Flopy version 3.4.1 on 07/22/2024 at 09:17:48.
BEGIN options
END options

BEGIN dimensions
  MAXBOUND  615
END dimensions

BEGIN period  1
  1281     -19.50000000
  2561     -19.16666667
  3841     -17.88000000
  4510     -15.64000000
  5179     -13.40000000
  5848     -11.92000000
  6648     -11.20000000
  7448     -10.48000000
  8248     -10.10000000
  9528     -10.06000000
  10808     -10.02000000
  1440     -19.50000000
  2720     -19.16666667
  3913     -17.90000000
  4582     -15.70000000
  5251     -13.50000000
  5934     -12.04000000
  6734     -11.32000000
  7534     -10.60000000
  8407     -10.20000000
  9687     -10.12000000
  10967     -10.04000000
  1439     -19.50000000
  2719     -19.16666667
  3912     -17.92000000
  4581     -15.76000000
  5250     -13.60000000
  5933     -12.16000000
  6733     -11.44000000
  7533     -10.72000000
  8406     -10.30000000
  9686     -10.18000000
  10966     -10.06000000
  1438     -19.50000000
  2718     -19.16666667
  3911     -17.93333333
  4580     -15.80000000
  5249     -13.66666667
  5932     -12.24000000
  6732     -11.52000000
  7532     -10.80000000
  8405     -10.36666667
  9685     -10.22000000
  10965     -10.07333333
  1437     -19.50000000
  2717     -19.16666667
  3910     -17.94666667
  4579     -15.84000000
  5248     -13.73333333
  5931     -12.32000000
  6731     -11.60000000
  7531     -10.88000000
  8404     -10.43333333
  9684     -10.26000000
  10964     -10.08666667
  1436     -19.50000000
  2716     -19.16666667
  3909     -17.96000000
  4578     -15.88000000
  5247     -13.80000000
  5930     -12.40000000
  6730     -11.68000000
  7530     -10.96000000
  8403     -10.50000000
  9683     -10.30000000
  10963     -10.10000000
  1435     -19.50000000
  2715     -19.16666667
  3908     -17.97333333
  4577     -15.92000000
  5246     -13.86666667
  5929     -12.48000000
  6729     -11.76000000
  7529     -11.04000000
  8402     -10.56666667
  9682     -10.34000000
  10962     -10.11333333
  1434     -19.50000000
  2714     -19.16666667
  3907     -17.98666667
  4576     -15.96000000
  5245     -13.93333333
  5928     -12.56000000
  6728     -11.84000000
  7528     -11.12000000
  8401     -10.63333333
  9681     -10.38000000
  10961     -10.12666667
  1433     -19.50000000
  2713     -19.16666667
  3906     -18.00000000
  4575     -16.00000000
  5244     -14.00000000
  5927     -12.64000000
  6727     -11.92000000
  7527     -11.20000000
  8400     -10.70000000
  9680     -10.42000000
  10960     -10.14000000
  1432     -19.50000000
  2712     -19.16666667
  3905     -18.02000000
  4574     -16.06000000
  5243     -14.10000000
  5926     -12.75333333
  6726     -12.02000000
  7526     -11.28666667
  8399     -10.76666667
  9679     -10.46000000
  10959     -10.15333333
  1431     -19.50000000
  2711     -19.16666667
  3904     -18.03333333
  4573     -16.10000000
  5242     -14.16666667
  5925     -12.84000000
  6725     -12.12000000
  7525     -11.40000000
  8398     -10.86666667
  9678     -10.52000000
  10958     -10.17333333
  1430     -19.50000000
  2710     -19.16666667
  3903     -18.05333333
  4572     -16.16000000
  5241     -14.26666667
  5924     -12.96000000
  6724     -12.24000000
  7524     -11.52000000
  8397     -10.96666667
  9677     -10.58000000
  10957     -10.19333333
  1429     -19.50000000
  2709     -19.16666667
  3902     -18.08000000
  4571     -16.24000000
  5240     -14.40000000
  5923     -13.11333333
  6723     -12.38000000
  7523     -11.64666667
  8396     -11.06666667
  9676     -10.64000000
  10956     -10.21333333
  1428     -19.50000000
  2708     -19.16666667
  3901     -18.10000000
  4570     -16.30000000
  5239     -14.50000000
  5922     -13.23333333
  6722     -12.50000000
  7522     -11.76666667
  8395     -11.16666667
  9675     -10.70000000
  10955     -10.23333333
  1427     -19.50000000
  2707     -19.16666667
  3900     -18.12000000
  4569     -16.36000000
  5238     -14.60000000
  5921     -13.35333333
  6721     -12.62000000
  7521     -11.88666667
  8394     -11.26666667
  9674     -10.76000000
  10954     -10.25333333
  1426     -19.50000000
  2706     -19.16666667
  3899     -18.14666667
  4568     -16.44000000
  5237     -14.73333333
  5920     -13.51333333
  6720     -12.78000000
  7520     -12.04666667
  8393     -11.40000000
  9673     -10.84000000
  10953     -10.28000000
  1425     -19.50000000
  2705     -19.16666667
  3898     -18.17333333
  4567     -16.52000000
  5236     -14.86666667
  5919     -13.67333333
  6719     -12.94000000
  7519     -12.20666667
  8392     -11.53333333
  9672     -10.92000000
  10952     -10.30666667
  1424     -19.50000000
  2704     -19.16666667
  3897     -18.20000000
  4566     -16.60000000
  5235     -15.00000000
  5918     -13.83333333
  6718     -13.10000000
  7518     -12.36666667
  8391     -11.66666667
  9671     -11.00000000
  10951     -10.33333333
  1423     -19.50000000
  2703     -19.16666667
  3896     -18.22666667
  4565     -16.68000000
  5234     -15.13333333
  5917     -13.99333333
  6717     -13.26000000
  7517     -12.52666667
  8390     -11.80000000
  9670     -11.08000000
  10950     -10.36000000
  1422     -19.50000000
  2702     -19.16666667
  3895     -18.26000000
  4564     -16.78000000
  5233     -15.30000000
  5916     -14.19333333
  6716     -13.46000000
  7516     -12.72666667
  8389     -11.96666667
  9669     -11.18000000
  10949     -10.39333333
  1421     -19.50000000
  2701     -19.16666667
  3894     -18.28666667
  4563     -16.86000000
  5232     -15.43333333
  5915     -14.35333333
  6715     -13.62000000
  7515     -12.88666667
  8388     -12.10000000
  9668     -11.26000000
  10948     -10.42000000
  1420     -19.50000000
  2700     -19.16666667
  3893     -18.32000000
  4562     -16.96000000
  5231     -15.60000000
  5914     -14.55333333
  6714     -13.82000000
  7514     -13.08666667
  8387     -12.26666667
  9667     -11.36000000
  10947     -10.45333333
  1419     -19.50000000
  2699     -19.16666667
  3892     -18.35333333
  4561     -17.06000000
  5230     -15.76666667
  5913     -14.75333333
  6713     -14.02000000
  7513     -13.28666667
  8386     -12.43333333
  9666     -11.46000000
  10946     -10.48666667
  1418     -19.50000000
  2698     -19.16666667
  3891     -18.39333333
  4560     -17.18000000
  5229     -15.96666667
  5912     -14.98666667
  6712     -14.24000000
  7512     -13.49333333
  8385     -12.60000000
  9665     -11.56000000
  10945     -10.52000000
  1417     -19.50000000
  2697     -19.16666667
  3890     -18.42666667
  4559     -17.28000000
  5228     -16.13333333
  5911     -15.19333333
  6711     -14.46000000
  7511     -13.72666667
  8384     -12.80000000
  9664     -11.68000000
  10944     -10.56000000
  1416     -19.50000000
  2696     -19.16666667
  3889     -18.46666667
  4558     -17.40000000
  5227     -16.33333333
  5910     -15.42666667
  6710     -14.68000000
  7510     -13.93333333
  8383     -12.96666667
  9663     -11.78000000
  10943     -10.59333333
  1415     -19.50000000
  2695     -19.16666667
  3888     -18.50666667
  4557     -17.52000000
  5226     -16.53333333
  5909     -15.66666667
  6709     -14.92000000
  7509     -14.17333333
  8382     -13.16666667
  9662     -11.90000000
  10942     -10.63333333
  1414     -19.50000000
  2694     -19.16666667
  3887     -18.54666667
  4556     -17.64000000
  5225     -16.73333333
  5908     -15.90666667
  6708     -15.16000000
  7508     -14.41333333
  8381     -13.36666667
  9661     -12.02000000
  10941     -10.67333333
  1413     -19.50000000
  2693     -19.16666667
  3886     -18.58666667
  4555     -17.76000000
  5224     -16.93333333
  5907     -16.14666667
  6707     -15.40000000
  7507     -14.65333333
  8380     -13.56666667
  9660     -12.14000000
  10940     -10.71333333
  1412     -19.50000000
  2692     -19.16666667
  3885     -18.62666667
  4554     -17.88000000
  5223     -17.13333333
  5906     -16.39333333
  6706     -15.66000000
  7506     -14.92666667
  8379     -13.80000000
  9659     -12.28000000
  10939     -10.76000000
  1411     -19.50000000
  2691     -19.16666667
  3884     -18.67333333
  4553     -18.02000000
  5222     -17.36666667
  5905     -16.66666667
  6705     -15.92000000
  7505     -15.17333333
  8378     -14.00000000
  9658     -12.40000000
  10938     -10.80000000
  1410     -19.50000000
  2690     -19.16666667
  3883     -18.72000000
  4552     -18.16000000
  5221     -17.60000000
  5904     -16.94666667
  6704     -16.20000000
  7504     -15.45333333
  8377     -14.23333333
  9657     -12.54000000
  10937     -10.84666667
  1409     -19.50000000
  2689     -19.16666667
  3882     -18.76000000
  4551     -18.28000000
  5220     -17.80000000
  5903     -17.19333333
  6703     -16.46000000
  7503     -15.72666667
  8376     -14.46666667
  9656     -12.68000000
  10936     -10.89333333
  1408     -19.50000000
  2688     -19.16666667
  3881     -18.80666667
  4550     -18.42000000
  5219     -18.03333333
  5902     -17.47333333
  6702     -16.74000000
  7502     -16.00666667
  8375     -14.70000000
  9655     -12.82000000
  10935     -10.94000000
  1407     -19.50000000
  2687     -19.16666667
  3880     -18.85333333
  4549     -18.56000000
  5218     -18.26666667
  5901     -17.74666667
  6701     -17.00000000
  7501     -16.25333333
  8374     -14.90000000
  9654     -12.94000000
  10934     -10.98000000
  1406     -19.50000000
  2686     -19.16666667
  3879     -18.90000000
  4548     -18.70000000
  5217     -18.50000000
  5900     -18.03333333
  6700     -17.30000000
  7500     -16.56666667
  8373     -15.16666667
  9653     -13.10000000
  10933     -11.03333333
  1405     -19.50000000
  2685     -19.16666667
  3878     -18.95333333
  4547     -18.86000000
  5216     -18.76666667
  5899     -18.34666667
  6699     -17.60000000
  7499     -16.85333333
  8372     -15.40000000
  9652     -13.24000000
  10932     -11.08000000
  1404     -19.50000000
  2684     -19.16666667
  5898     -18.62666667
  6698     -17.88000000
  7498     -17.13333333
  8371     -15.63333333
  9651     -13.38000000
  10931     -11.12666667
  1403     -19.50000000
  2683     -19.16666667
  5897     -18.67333333
  6697     -18.02000000
  7497     -17.36666667
  8370     -15.86666667
  9650     -13.52000000
  10930     -11.17333333
  1402     -19.50000000
  2682     -19.16666667
  5896     -18.72666667
  6696     -18.18000000
  7496     -17.63333333
  8369     -16.13333333
  9649     -13.68000000
  10929     -11.22666667
  1401     -19.50000000
  2681     -19.16666667
  5895     -18.77333333
  6695     -18.32000000
  7495     -17.86666667
  8368     -16.36666667
  9648     -13.82000000
  10928     -11.27333333
  2601     -49.16666667
  5888     -48.77333333
  6688     -48.32000000
  7488     -47.86666667
  8288     -46.36666667
  9568     -43.82000000
  10848     -41.27333333
  2602     -49.16666667
  5889     -48.83333333
  6689     -48.50000000
  7489     -48.16666667
  8289     -46.66666667
  9569     -44.00000000
  10849     -41.33333333
  2603     -49.16666667
  5890     -48.90000000
  6690     -48.70000000
  7490     -48.50000000
  8290     -47.00000000
  9570     -44.20000000
  10850     -41.40000000
  2604     -49.16666667
  5891     -48.96000000
  6691     -48.88000000
  7491     -48.80000000
  8291     -47.30000000
  9571     -44.38000000
  10851     -41.46000000
  2605     -49.16666667
  8292     -47.50000000
  9572     -44.50000000
  10852     -41.50000000
  2606     -49.16666667
  8293     -47.50000000
  9573     -44.50000000
  10853     -41.50000000
  2607     -49.16666667
  8294     -47.50000000
  9574     -44.50000000
  10854     -41.50000000
  2608     -49.16666667
  8295     -47.50000000
  9575     -44.50000000
  10855     -41.50000000
  2609     -49.16666667
  8296     -47.50000000
  9576     -44.50000000
  10856     -41.50000000
  2610     -49.16666667
  8297     -47.50000000
  9577     -44.50000000
  10857     -41.50000000
  2611     -49.16666667
  8298     -47.50000000
  9578     -44.50000000
  10858     -41.50000000
  2612     -49.16666667
  8299     -47.50000000
  9579     -44.50000000
  10859     -41.50000000
  2613     -49.16666667
  8300     -47.50000000
  9580     -44.50000000
  10860     -41.50000000
  2614     -49.16666667
  8301     -47.50000000
  9581     -44.50000000
  10861     -41.50000000
  2615     -49.16666667
  8302     -47.50000000
  9582     -44.50000000
  10862     -41.50000000
  2616     -49.16666667
  8303     -47.50000000
  9583     -44.50000000
  10863     -41.50000000
  2617     -49.16666667
  8304     -47.50000000
  9584     -44.50000000
  10864     -41.50000000
  2618     -49.16666667
  8305     -47.50000000
  9585     -44.50000000
  10865     -41.50000000
  2619     -49.16666667
  8306     -47.50000000
  9586     -44.50000000
  10866     -41.50000000
  2620     -49.16666667
  8307     -47.50000000
  9587     -44.50000000
  10867     -41.50000000
  2621     -49.16666667
  8308     -47.50000000
  9588     -44.50000000
  10868     -41.50000000
  2622     -49.16666667
  8309     -47.50000000
  9589     -44.50000000
  10869     -41.50000000
  2623     -49.16666667
  8310     -47.50000000
  9590     -44.50000000
  10870     -41.50000000
  2624     -49.16666667
  8311     -47.50000000
  9591     -44.50000000
  10871     -41.50000000
  2625     -49.16666667
  8312     -47.50000000
  9592     -44.50000000
  10872     -41.50000000
  2626     -49.16666667
  8313     -47.50000000
  9593     -44.50000000
  10873     -41.50000000
  2627     -49.16666667
  8314     -47.50000000
  9594     -44.50000000
  10874     -41.50000000
  2628     -49.16666667
  8315     -47.50000000
  9595     -44.50000000
  10875     -41.50000000
  2629     -49.16666667
  8316     -47.50000000
  9596     -44.50000000
  10876     -41.50000000
  2630     -49.16666667
  8317     -47.50000000
  9597     -44.50000000
  10877     -41.50000000
  2631     -49.16666667
  8318     -47.50000000
  9598     -44.50000000
  10878     -41.50000000
  2632     -49.16666667
  8319     -47.50000000
  9599     -44.50000000
  10879     -41.50000000
  2633     -49.16666667
  8320     -47.50000000
  9600     -44.50000000
  10880     -41.50000000
  2634     -49.16666667
  8321     -47.50000000
  9601     -44.50000000
  10881     -41.50000000
  2635     -49.16666667
  8322     -47.50000000
  9602     -44.50000000
  10882     -41.50000000
  2636     -49.16666667
  8323     -47.50000000
  9603     -44.50000000
  10883     -41.50000000
  2637     -49.16666667
  8324     -47.50000000
  9604     -44.50000000
  10884     -41.50000000
  2638     -49.16666667
  8325     -47.50000000
  9605     -44.50000000
  10885     -41.50000000
  2639     -49.16666667
  8326     -47.50000000
  9606     -44.50000000
  10886     -41.50000000
  2640     -49.16666667
  8327     -47.50000000
  9607     -44.50000000
  10887     -41.50000000
  2641     -49.16666667
  8328     -47.50000000
  9608     -44.50000000
  10888     -41.50000000
END period  1

