# File generated by Flopy version 3.4.1 on 09/12/2024 at 06:51:20.
BEGIN options
  BUDGET  FILEOUT  run.bud
  HEAD  FILEOUT  run.hds
END options

BEGIN period  1
  SAVE  HEAD  LAST
  SAVE  BUDGET  ALL
END period  1

