# File generated by Flopy version 3.4.1 on 07/22/2024 at 09:17:43.
BEGIN options
END options

BEGIN dimensions
  NPER  1
END dimensions

BEGIN perioddata
     730.00000000  12       1.20000000
END perioddata

