# File generated by Flopy version 3.4.1 on 07/22/2024 at 09:17:43.
BEGIN options
  PRINT_OPTION  all
  COMPLEXITY  complex
END options

BEGIN nonlinear
  OUTER_DVCLOSE       0.01000000
  OUTER_MAXIMUM  400
END nonlinear

BEGIN linear
  INNER_DVCLOSE       0.00100000
  LINEAR_ACCELERATION  bicgstab
END linear

