# File generated by Flopy version 3.4.1 on 09/12/2024 at 06:51:17.
BEGIN options
  PRINT_OPTION  summary
  COMPLEXITY  moderate
END options

BEGIN nonlinear
  OUTER_DVCLOSE       0.01000000
  OUTER_MAXIMUM  60
END nonlinear

BEGIN linear
  INNER_DVCLOSE       0.00100000
  LINEAR_ACCELERATION  bicgstab
  PRECONDITIONER_LEVELS  5
  PRECONDITIONER_DROP_TOLERANCE       0.01000000
  NUMBER_ORTHOGONALIZATIONS  2
END linear

