# File generated by Flopy version 3.4.1 on 09/12/2024 at 06:51:17.
BEGIN options
END options

BEGIN dimensions
  NPER  1
END dimensions

BEGIN perioddata
     730.00000000  12       1.10000000
END perioddata

